@<TRIPOS>MOLECULE
E:\PythonProject\protein_automation\processed_pdbs\6BD4\6BD4_cleaned_ligands\OLC_A1103.pdb
 65 64 0 0 0
SMALL
GASTEIGER

@<TRIPOS>ATOM
      1 C          33.0416   -7.9307   17.8225 C.3     1  UNL1       -0.0653
      2 C          31.0498   -6.4437    8.1251 C.2     1  UNL1       -0.0879
      3 C          30.3868   -6.6693    6.9823 C.2     1  UNL1       -0.0879
      4 C          32.1591   -8.3272   16.6521 C.3     1  UNL1       -0.0559
      5 C          30.7025   -7.1436    9.3995 C.3     1  UNL1       -0.0348
      6 C          29.2162   -7.6068    6.8482 C.3     1  UNL1       -0.0348
      7 C          32.3013   -9.0063   -3.3936 C.3     1  UNL1        0.0733
      8 C          32.5382   -7.5458   15.3997 C.3     1  UNL1       -0.0533
      9 C          31.5929   -6.7349   10.5587 C.3     1  UNL1       -0.0496
     10 C          27.9477   -6.8948    6.3714 C.3     1  UNL1       -0.0496
     11 C          31.6584   -7.9381   14.2188 C.3     1  UNL1       -0.0531
     12 C          31.1889   -7.5273   11.7962 C.3     1  UNL1       -0.0528
     13 C          28.0722   -6.2402    4.9939 C.3     1  UNL1       -0.0528
     14 C          32.0587   -7.1453   12.9811 C.3     1  UNL1       -0.0530
     15 C          28.4788   -7.2523    3.9292 C.3     1  UNL1       -0.0530
     16 C          28.6706   -6.6089    2.5643 C.3     1  UNL1       -0.0526
     17 C          29.0854   -7.6834    1.5687 C.3     1  UNL1       -0.0430
     18 C          29.3091   -7.1166    0.1765 C.3     1  UNL1        0.0449
     19 C          31.5009   -9.7441   -1.0880 C.3     1  UNL1        0.1204
     20 C          29.6997   -8.2598   -0.7144 C.2     1  UNL1        0.3072
     21 C          31.4504   -9.9986   -2.6005 C.3     1  UNL1        0.1121
     22 O          28.9004   -8.9935   -1.2737 O.2     1  UNL1       -0.2509
     23 O          33.6820   -9.1676   -3.0632 O.3     1  UNL1       -0.3923
     24 O          31.9211  -11.3283   -2.8769 O.3     1  UNL1       -0.3861
     25 O          31.0483   -8.4430   -0.6818 O.3     1  UNL1       -0.4619
     26 H          32.7625   -8.4948   18.7164 H       1  UNL1        0.0230
     27 H          32.9386   -6.8633   18.0438 H       1  UNL1        0.0230
     28 H          34.0946   -8.1347   17.6026 H       1  UNL1        0.0230
     29 H          31.8793   -5.7398    8.1254 H       1  UNL1        0.0569
     30 H          30.7173   -6.1474    6.0867 H       1  UNL1        0.0569
     31 H          32.2616   -9.4026   16.4662 H       1  UNL1        0.0263
     32 H          31.1096   -8.1388   16.9063 H       1  UNL1        0.0263
     33 H          29.6589   -6.9274    9.6611 H       1  UNL1        0.0307
     34 H          30.7997   -8.2261    9.2460 H       1  UNL1        0.0307
     35 H          29.4949   -8.4229    6.1739 H       1  UNL1        0.0307
     36 H          28.9774   -8.0999    7.7960 H       1  UNL1        0.0307
     37 H          32.1975   -9.1881   -4.4691 H       1  UNL1        0.0584
     38 H          32.0099   -7.9719   -3.1894 H       1  UNL1        0.0584
     39 H          33.5895   -7.7330   15.1501 H       1  UNL1        0.0265
     40 H          32.4376   -6.4701   15.5889 H       1  UNL1        0.0265
     41 H          32.6448   -6.9287   10.3150 H       1  UNL1        0.0268
     42 H          31.4935   -5.6593   10.7496 H       1  UNL1        0.0268
     43 H          27.1305   -7.6265    6.3456 H       1  UNL1        0.0268
     44 H          27.6582   -6.1311    7.1042 H       1  UNL1        0.0268
     45 H          30.6047   -7.7478   14.4571 H       1  UNL1        0.0265
     46 H          31.7566   -9.0123   14.0195 H       1  UNL1        0.0265
     47 H          30.1339   -7.3373   12.0306 H       1  UNL1        0.0265
     48 H          31.2845   -8.6019   11.5956 H       1  UNL1        0.0265
     49 H          27.1080   -5.7920    4.7269 H       1  UNL1        0.0265
     50 H          28.7955   -5.4175    5.0291 H       1  UNL1        0.0265
     51 H          33.1114   -7.3369   12.7406 H       1  UNL1        0.0265
     52 H          31.9596   -6.0712   13.1781 H       1  UNL1        0.0265
     53 H          29.4243   -7.7343    4.1998 H       1  UNL1        0.0265
     54 H          27.7208   -8.0433    3.8728 H       1  UNL1        0.0265
     55 H          27.7435   -6.1245    2.2399 H       1  UNL1        0.0265
     56 H          29.4483   -5.8380    2.6242 H       1  UNL1        0.0265
     57 H          30.0041   -8.1742    1.9180 H       1  UNL1        0.0270
     58 H          28.3176   -8.4680    1.5326 H       1  UNL1        0.0270
     59 H          28.3970   -6.6595   -0.2216 H       1  UNL1        0.0377
     60 H          30.0900   -6.3517    0.1689 H       1  UNL1        0.0377
     61 H          30.9360  -10.5157   -0.5488 H       1  UNL1        0.0724
     62 H          32.5308   -9.8440   -0.7252 H       1  UNL1        0.0724
     63 H          30.4216   -9.9359   -2.9654 H       1  UNL1        0.0650
     64 H          33.9853   -9.9566   -3.5478 H       1  UNL1        0.2095
     65 H          32.7679  -11.4348   -2.4087 H       1  UNL1        0.2100
@<TRIPOS>BOND
     1    22    20    2
     2    20    18    1
     3    20    25    1
     4    19    25    1
     5    18    17    1
     6    17    16    1
     7    23     7    1
     8     8     4    1
     9     8    11    1
    10     4     1    1
    11    16    15    1
    12    21     7    1
    13    14    11    1
    14    14    12    1
    15    15    13    1
    16    13    10    1
    17     9    12    1
    18     9     5    1
    19     5     2    1
    20     6    10    1
    21     6     3    1
    22     2     3    2
    23    21    24    1
    24    21    19    1
    25     1    26    1
    26     1    27    1
    27     1    28    1
    28     2    29    1
    29     3    30    1
    30     4    31    1
    31     4    32    1
    32     5    33    1
    33     5    34    1
    34     6    35    1
    35     6    36    1
    36     7    37    1
    37     7    38    1
    38     8    39    1
    39     8    40    1
    40     9    41    1
    41     9    42    1
    42    10    43    1
    43    10    44    1
    44    11    45    1
    45    11    46    1
    46    12    47    1
    47    12    48    1
    48    13    49    1
    49    13    50    1
    50    14    51    1
    51    14    52    1
    52    15    53    1
    53    15    54    1
    54    16    55    1
    55    16    56    1
    56    17    57    1
    57    17    58    1
    58    18    59    1
    59    18    60    1
    60    19    61    1
    61    19    62    1
    62    21    63    1
    63    23    64    1
    64    24    65    1
