@<TRIPOS>MOLECULE
E:\PythonProject\protein_automation\processed_pdbs\1J1Z\1J1Z_cleaned_ligands\ATP_A510.pdb
 47 49 0 0 0
SMALL
GASTEIGER

@<TRIPOS>ATOM
      1 P           2.2225   -3.1055   -6.1898 P.3     1  UNL1        0.4808
      2 O           1.4427   -2.7842   -7.5389 O.3     1  UNL1       -0.3023
      3 O           3.0105   -1.7387   -5.9377 O.3     1  UNL1       -0.3023
      4 O           3.1298   -4.2916   -6.1799 O.2     1  UNL1       -0.2271
      5 P           0.2898   -4.1470   -4.3501 P.3     1  UNL1        0.4918
      6 O           0.9426   -5.5187   -4.8468 O.3     1  UNL1       -0.3019
      7 O          -1.1919   -4.0863   -4.4801 O.2     1  UNL1       -0.2265
      8 O           1.0972   -3.0089   -5.0946 O.3     1  UNL1       -0.1859
      9 P           0.4534   -4.6773   -1.5545 P.3     1  UNL1        0.4835
     10 O          -0.3793   -3.8635   -0.6265 O.2     1  UNL1       -0.2269
     11 O          -0.1920   -6.0720   -1.9988 O.3     1  UNL1       -0.3022
     12 O           0.8912   -3.9863   -2.9037 O.3     1  UNL1       -0.1858
     13 O           1.8478   -5.1760   -0.9378 O.3     1  UNL1       -0.2837
     14 C           2.9440   -5.3597   -1.8251 C.3     1  UNL1        0.0879
     15 C           4.1366   -5.8645   -1.0299 C.3     1  UNL1        0.1134
     16 O           3.8809   -7.2171   -0.5912 O.3     1  UNL1       -0.3456
     17 C           5.4144   -5.8978   -1.8656 C.3     1  UNL1        0.1135
     18 O           6.5882   -5.7196   -1.0501 O.3     1  UNL1       -0.3864
     19 C           5.4373   -7.3142   -2.4169 C.3     1  UNL1        0.1285
     20 O           6.7706   -7.7379   -2.6985 O.3     1  UNL1       -0.3847
     21 C           4.8105   -8.0896   -1.2603 C.3     1  UNL1        0.1667
     22 N           4.1492   -9.3246   -1.6235 N.ar    1  UNL1       -0.2855
     23 C           4.4997  -10.5530   -1.1192 C.ar    1  UNL1        0.1004
     24 N           3.8426  -11.5328   -1.6959 N.ar    1  UNL1       -0.2306
     25 C           3.0288  -10.9091   -2.6167 C.ar    1  UNL1        0.1473
     26 C           2.1303  -11.4217   -3.5669 C.ar    1  UNL1        0.1472
     27 N           1.9333  -12.7800   -3.7683 N.pl3   1  UNL1       -0.3413
     28 N           1.4260  -10.5527   -4.3211 N.ar    1  UNL1       -0.2188
     29 C           1.6539   -9.2335   -4.1549 C.ar    1  UNL1        0.1205
     30 N           2.4993   -8.6202   -3.2944 N.ar    1  UNL1       -0.2159
     31 C           3.1664   -9.5283   -2.5564 C.ar    1  UNL1        0.1674
     32 H           0.6481   -3.3307   -7.6723 H       1  UNL1        0.2220
     33 H           3.7105   -1.8289   -5.2662 H       1  UNL1        0.2220
     34 H           0.6819   -6.2782   -4.2913 H       1  UNL1        0.2220
     35 H          -0.4723   -6.5667   -1.2006 H       1  UNL1        0.2220
     36 H           3.1913   -4.3836   -2.2573 H       1  UNL1        0.0592
     37 H           2.6640   -6.0499   -2.6251 H       1  UNL1        0.0592
     38 H           4.2537   -5.2544   -0.1273 H       1  UNL1        0.0647
     39 H           5.4559   -5.1363   -2.6504 H       1  UNL1        0.0647
     40 H           6.3495   -5.8190   -0.1097 H       1  UNL1        0.2100
     41 H           4.8463   -7.3775   -3.3351 H       1  UNL1        0.0665
     42 H           7.3617   -7.1242   -2.2117 H       1  UNL1        0.2101
     43 H           5.5847   -8.3473   -0.5257 H       1  UNL1        0.0866
     44 H           5.2511  -10.6738   -0.3477 H       1  UNL1        0.1030
     45 H           2.2345  -13.3578   -2.9920 H       1  UNL1        0.1438
     46 H           1.0483  -12.9889   -4.2083 H       1  UNL1        0.1438
     47 H           1.0757   -8.5852   -4.8052 H       1  UNL1        0.1048
@<TRIPOS>BOND
     1    13    14    1
     2    16    15    1
     3    16    21    1
     4    11     9    1
     5     9    12    1
     6    14    15    1
     7    15    17    1
     8     4     1    2
     9    21    22    1
    10    21    19    1
    11    12     5    1
    12    23    22   ar
    13    23    24   ar
    14    17    18    1
    15    17    19    1
    16    22    31   ar
    17    24    25   ar
    18    20    19    1
    19     1     8    1
    20     1     2    1
    21     1     3    1
    22     8     5    1
    23    31    25   ar
    24    31    30   ar
    25    25    26   ar
    26     5     7    2
    27     5     6    1
    28    30    29   ar
    29    26    27    1
    30    26    28   ar
    31    29    28   ar
    32     9    13    1
    33     9    10    2
    34     2    32    1
    35     3    33    1
    36     6    34    1
    37    11    35    1
    38    14    36    1
    39    14    37    1
    40    15    38    1
    41    17    39    1
    42    18    40    1
    43    19    41    1
    44    20    42    1
    45    21    43    1
    46    23    44    1
    47    27    45    1
    48    27    46    1
    49    29    47    1
