@<TRIPOS>MOLECULE
E:\PythonProject\protein_automation\processed_pdbs\1J1Z\1J1Z_cleaned_ligands\ASP_A4530.pdb
 9 7 0 0 0
SMALL
GASTEIGER

@<TRIPOS>ATOM
      1  N         29.8480   57.9870   36.7970 N.3   4530  ASP4530     0.0000
      2 CA         29.9110   58.9650   37.9430 Ca    4530  ASP4530     0.0000
      3  C         29.9830   58.2660   39.3180 C.2   4530  ASP4530     0.0000
      4  O         30.1980   57.0390   39.3380 O.co2 4530  ASP4530     0.0000
      5  CB        28.6850   59.9080   37.8410 C.3   4530  ASP4530     0.0000
      6  CG        27.3000   59.2680   38.1060 C.2   4530  ASP4530     0.0000
      7  OD1       27.2240   58.0490   38.3550 O.co2 4530  ASP4530     0.0000
      8  OD2       26.2780   60.0060   38.0590 O.co2 4530  ASP4530     0.0000
      9  OXT       29.8000   58.9520   40.3460 O.co2 4530  ASP4530     0.0000
@<TRIPOS>BOND
     1     1     2    1
     2     5     6    1
     3     2     3    1
     4     8     6   ar
     5     6     7   ar
     6     3     4   ar
     7     3     9   ar
