
     RDKit          3D

 32 34  0  0  0  0  0  0  0  0999 V2000
   -4.0380   68.9610  -72.2550 C   0  0  2  0  0  0  0  0  0  0  0  0
   -2.9970   69.4940  -76.4850 C   0  0  0  0  0  0  0  0  0  0  0  0
   -4.5140   70.0030  -71.2370 C   0  0  1  0  0  0  0  0  0  0  0  0
   -4.0050   69.4110  -69.9320 C   0  0  1  0  0  0  0  0  0  0  0  0
   -4.4440   69.1120  -74.7490 C   0  0  0  0  0  0  0  0  0  0  0  0
   -4.1610   67.8970  -70.1580 C   0  0  1  0  0  0  0  0  0  0  0  0
   -5.5680   68.9980  -75.5620 C   0  0  0  0  0  0  0  0  0  0  0  0
   -5.4620   67.3130  -69.5860 C   0  0  0  0  0  0  0  0  0  0  0  0
   -5.4060   69.1450  -77.0000 C   0  0  0  0  0  0  0  0  0  0  0  0
   -6.2550   68.7150  -73.5730 C   0  0  0  0  0  0  0  0  0  0  0  0
   -4.0770   69.3930  -77.3670 N   0  0  0  0  0  0  0  0  0  0  0  0
   -1.7770   69.7370  -77.0020 N   0  0  0  0  0  0  0  0  0  0  0  0
   -3.1470   69.3540  -75.1430 N   0  0  0  0  0  0  0  0  0  0  0  0
   -8.9470   64.9840  -67.3390 N   0  0  0  0  0  0  0  0  0  0  0  0
   -6.7130   68.7440  -74.7780 N   0  0  0  0  0  0  0  0  0  0  0  0
   -4.8860   68.9280  -73.4610 N   0  0  0  0  0  0  0  0  0  0  0  0
   -8.9670   68.6760  -70.2760 O   0  0  0  0  0  0  0  0  0  0  0  0
   -9.9550   64.5340  -69.7300 O   0  0  0  0  0  0  0  0  0  0  0  0
   -9.0490   64.0410  -64.9470 O   0  0  0  0  0  0  0  0  0  0  0  0
   -3.9320   71.2550  -71.6000 O   0  0  0  0  0  0  0  0  0  0  0  0
   -7.7950   68.4400  -68.0080 O   0  0  0  0  0  0  0  0  0  0  0  0
  -10.5840   66.6090  -68.6030 O   0  0  0  0  0  0  0  0  0  0  0  0
  -10.9130   65.3650  -65.6790 O   0  0  0  0  0  0  0  0  0  0  0  0
   -2.6320   69.7580  -69.6440 O   0  0  0  0  0  0  0  0  0  0  0  0
   -8.3170   66.3460  -69.3990 O   0  0  0  0  0  0  0  0  0  0  0  0
  -10.6770   63.2530  -66.5510 O   0  0  0  0  0  0  0  0  0  0  0  0
   -4.1640   67.7080  -71.5890 O   0  0  0  0  0  0  0  0  0  0  0  0
   -6.6210   67.9580  -70.1890 O   0  0  0  0  0  0  0  0  0  0  0  0
   -6.2670   69.0800  -77.8780 O   0  0  0  0  0  0  0  0  0  0  0  0
   -8.0030   67.9530  -69.3970 P   0  0  0  0  0  0  0  0  0  0  0  0
   -9.5630   65.5740  -68.7550 P   0  0  0  0  0  0  0  0  0  0  0  0
   -9.8670   64.4690  -66.0970 P   0  0  0  0  0  0  0  0  0  0  0  0
  3  1  1  0
  4  3  1  0
  6  4  1  0
  7  5  1  0
  6  8  1  6
  9  7  1  0
 11  9  1  0
 11  2  1  0
 12  2  1  0
 13  2  1  0
 13  5  1  0
 15 10  1  0
 15  7  1  0
 16 10  1  0
 16  5  1  0
  1 16  1  6
  3 20  1  6
  4 24  1  6
 27  1  1  0
 27  6  1  0
 28  8  1  0
 29  9  1  0
 30 28  1  0
 30 25  1  0
 30 21  1  0
 30 17  1  0
 31 18  1  0
 31 14  1  0
 31 25  1  0
 31 22  1  0
 32 23  1  0
 32 26  1  0
 32 14  1  0
 32 19  1  0
M  END
$$$$
