
     RDKit          3D

 42 49  0  0  0  0  0  0  0  0999 V2000
  205.7380  195.0150  167.4200 C   0  0  0  0  0  0  0  0  0  0  0  0
  204.5900  194.5920  171.4630 C   0  0  0  0  0  0  0  0  0  0  0  0
  205.6590  198.6130  172.1380 C   0  0  0  0  0  0  0  0  0  0  0  0
  205.3340  199.2340  167.9520 C   0  0  0  0  0  0  0  0  0  0  0  0
  205.7870  193.5910  167.1650 C   0  0  0  0  0  0  0  0  0  0  0  0
  203.9940  194.4270  172.7500 C   0  0  0  0  0  0  0  0  0  0  0  0
  205.8890  199.9950  172.4540 C   0  0  0  0  0  0  0  0  0  0  0  0
  205.4810  199.5500  166.5480 C   0  0  0  0  0  0  0  0  0  0  0  0
  205.3210  192.9660  168.2430 C   0  0  0  0  0  0  0  0  0  0  0  0
  204.3370  195.4990  173.4850 C   0  0  0  0  0  0  0  0  0  0  0  0
  205.6980  200.7170  171.3650 C   0  0  0  0  0  0  0  0  0  0  0  0
  205.7780  198.4280  165.8970 C   0  0  0  0  0  0  0  0  0  0  0  0
  204.9690  193.9690  169.2000 C   0  0  0  0  0  0  0  0  0  0  0  0
  205.1710  196.3410  172.6530 C   0  0  0  0  0  0  0  0  0  0  0  0
  205.3160  199.8110  170.2980 C   0  0  0  0  0  0  0  0  0  0  0  0
  205.8370  197.3540  166.8530 C   0  0  0  0  0  0  0  0  0  0  0  0
  206.2790  192.9180  165.8770 C   0  0  0  0  0  0  0  0  0  0  0  0
  204.0060  195.8950  174.9380 C   0  0  0  0  0  0  0  0  0  0  0  0
  205.8470  202.2490  171.3260 C   0  0  0  0  0  0  0  0  0  0  0  0
  206.0250  198.2640  164.3890 C   0  0  0  0  0  0  0  0  0  0  0  0
  207.6820  192.3850  166.0740 C   0  0  0  0  0  0  0  0  0  0  0  0
  203.3380  195.1710  175.8390 C   0  0  0  0  0  0  0  0  0  0  0  0
  207.5250  198.3790  164.2040 C   0  0  0  0  0  0  0  0  0  0  0  0
  208.6320  193.4970  165.7890 C   0  0  0  0  0  0  0  0  0  0  0  0
  208.1280  197.1670  163.5570 C   0  0  0  0  0  0  0  0  0  0  0  0
  206.1130  196.0330  166.5850 C   0  0  0  0  0  0  0  0  0  0  0  0
  204.4640  193.7120  170.4360 C   0  0  0  0  0  0  0  0  0  0  0  0
  205.7450  197.5400  172.9820 C   0  0  0  0  0  0  0  0  0  0  0  0
  205.0170  200.0950  168.9850 C   0  0  0  0  0  0  0  0  0  0  0  0
  205.1540  191.4530  168.4930 C   0  0  0  0  0  0  0  0  0  0  0  0
  203.1360  193.1780  173.0440 C   0  0  0  0  0  0  0  0  0  0  0  0
  206.3060  200.5500  173.8180 C   0  0  0  0  0  0  0  0  0  0  0  0
  205.3190  200.9400  165.9150 C   0  0  0  0  0  0  0  0  0  0  0  0
  205.5970  196.8510  169.8110 Fe  0  0  1  0  0  4  0  0  0  0  0  0
  205.2350  195.2120  168.6810 N   0  0  0  0  0  0  0  0  0  0  0  0
  205.3000  195.7600  171.4230 N   0  0  0  0  0  0  0  0  0  0  0  0
  205.3120  198.5360  170.8150 N   0  0  0  0  0  0  0  0  0  0  0  0
  205.5600  197.8800  168.0960 N   0  0  0  0  0  0  0  0  0  0  0  0
  209.6350  193.6200  166.5290 O   0  0  0  0  0  0  0  0  0  0  0  0
  209.3010  196.8420  163.8800 O   0  0  0  0  0  0  0  0  0  0  0  0
  208.3650  194.2580  164.8300 O   0  0  0  0  0  0  0  0  0  0  0  0
  207.4380  196.5410  162.7200 O   0  0  0  0  0  0  0  0  0  0  0  0
  5  1  1  0
  6  2  1  0
  7  3  1  0
  8  4  1  0
  9  5  1  0
 10  6  1  0
 11  7  1  0
 12  8  1  0
 13  9  1  0
 14 10  1  0
 15 11  1  0
 16 12  1  0
 17  5  1  0
 18 10  1  0
 19 11  1  0
 20 12  1  0
 21 17  1  0
 22 18  1  0
 23 20  1  0
 24 21  1  0
 25 23  1  0
 26  1  1  0
 26 16  1  0
 27 13  1  0
 27  2  1  0
 28 14  1  0
 28  3  1  0
 29  4  1  0
 29 15  1  0
 30  9  1  0
 31  6  1  0
 32  7  1  0
 33  8  1  0
 35  1  1  0
 35 13  1  0
 35 34  1  0
 36  2  1  0
 36 34  1  0
 36 14  1  0
 37 34  1  0
 37 15  1  0
 37  3  1  0
 38 16  1  0
 38  4  1  0
 38 34  1  0
 39 24  1  0
 40 25  1  0
 41 24  1  0
 42 25  1  0
M  END
$$$$
