
     RDKit          3D

 43 50  0  0  0  0  0  0  0  0999 V2000
  201.9900  190.4790  190.2530 C   0  0  0  0  0  0  0  0  0  0  0  0
  202.0830  191.8740  186.2290 C   0  0  0  0  0  0  0  0  0  0  0  0
  198.4790  189.6770  185.4620 C   0  0  0  0  0  0  0  0  0  0  0  0
  198.3340  188.4190  189.5410 C   0  0  0  0  0  0  0  0  0  0  0  0
  203.2910  190.9680  190.6140 C   0  0  0  0  0  0  0  0  0  0  0  0
  202.2630  192.3520  184.8850 C   0  0  0  0  0  0  0  0  0  0  0  0
  197.3040  188.9720  185.0320 C   0  0  0  0  0  0  0  0  0  0  0  0
  198.0080  188.2960  190.9490 C   0  0  0  0  0  0  0  0  0  0  0  0
  203.7690  191.6230  189.5680 C   0  0  0  0  0  0  0  0  0  0  0  0
  201.2450  191.9130  184.1560 C   0  0  0  0  0  0  0  0  0  0  0  0
  196.8380  188.2930  186.0950 C   0  0  0  0  0  0  0  0  0  0  0  0
  199.0210  188.7750  191.6520 C   0  0  0  0  0  0  0  0  0  0  0  0
  202.7840  191.5650  188.5170 C   0  0  0  0  0  0  0  0  0  0  0  0
  200.3910  191.1210  185.0100 C   0  0  0  0  0  0  0  0  0  0  0  0
  197.7130  188.5520  187.2070 C   0  0  0  0  0  0  0  0  0  0  0  0
  200.0030  189.2140  190.7100 C   0  0  0  0  0  0  0  0  0  0  0  0
  203.9850  190.7440  191.9690 C   0  0  0  0  0  0  0  0  0  0  0  0
  201.0470  192.2250  182.6650 C   0  0  0  0  0  0  0  0  0  0  0  0
  195.6330  187.3560  186.2890 C   0  0  0  0  0  0  0  0  0  0  0  0
  199.1710  188.8880  193.1830 C   0  0  0  0  0  0  0  0  0  0  0  0
  204.4360  189.2890  192.0880 C   0  0  0  0  0  0  0  0  0  0  0  0
  199.9320  192.8570  182.2910 C   0  0  0  0  0  0  0  0  0  0  0  0
  194.7990  186.9140  185.3520 C   0  0  0  0  0  0  0  0  0  0  0  0
  199.6270  187.5930  193.8290 C   0  0  0  0  0  0  0  0  0  0  0  0
  205.1250  189.0930  193.4020 C   0  0  0  0  0  0  0  0  0  0  0  0
  201.0320  187.7580  194.3250 C   0  0  0  0  0  0  0  0  0  0  0  0
  201.1800  189.7610  191.0700 C   0  0  0  0  0  0  0  0  0  0  0  0
  202.9150  192.1240  187.2800 C   0  0  0  0  0  0  0  0  0  0  0  0
  199.2350  190.4820  184.6510 C   0  0  0  0  0  0  0  0  0  0  0  0
  197.5660  188.0400  188.4730 C   0  0  0  0  0  0  0  0  0  0  0  0
  205.1270  192.3320  189.4850 C   0  0  0  0  0  0  0  0  0  0  0  0
  203.4110  193.2540  184.3970 C   0  0  0  0  0  0  0  0  0  0  0  0
  196.8040  189.0910  183.5740 C   0  0  0  0  0  0  0  0  0  0  0  0
  196.7160  187.7140  191.5350 C   0  0  0  0  0  0  0  0  0  0  0  0
  200.1100  190.1840  187.7880 Fe  0  0  2  0  0  4  0  0  0  0  0  0
  201.6980  190.8470  188.9610 N   0  0  0  0  0  0  0  0  0  0  0  0
  200.9340  191.1200  186.2710 N   0  0  0  0  0  0  0  0  0  0  0  0
  198.7030  189.4030  186.7870 N   0  0  0  0  0  0  0  0  0  0  0  0
  199.5750  188.9950  189.4230 N   0  0  0  0  0  0  0  0  0  0  0  0
  206.1990  189.7040  193.6190 O   0  0  0  0  0  0  0  0  0  0  0  0
  201.6320  188.8320  194.0870 O   0  0  0  0  0  0  0  0  0  0  0  0
  204.5930  188.3130  194.2250 O   0  0  0  0  0  0  0  0  0  0  0  0
  201.5610  186.8120  194.9530 O   0  0  0  0  0  0  0  0  0  0  0  0
  5  1  1  0
  6  2  1  0
  7  3  1  0
  8  4  1  0
  9  5  1  0
 10  6  1  0
 11  7  1  0
 12  8  1  0
 13  9  1  0
 14 10  1  0
 15 11  1  0
 16 12  1  0
 17  5  1  0
 18 10  1  0
 19 11  1  0
 20 12  1  0
 21 17  1  0
 22 18  1  0
 23 19  1  0
 24 20  1  0
 25 21  1  0
 26 24  1  0
 27 16  1  0
 27  1  1  0
 28 13  1  0
 28  2  1  0
 29  3  1  0
 29 14  1  0
 30 15  1  0
 30  4  1  0
 31  9  1  0
 32  6  1  0
 33  7  1  0
 34  8  1  0
 36 35  1  0
 36  1  1  0
 36 13  1  0
 37 35  1  0
 37 14  1  0
 37  2  1  0
 38 35  1  0
 38 15  1  0
 38  3  1  0
 39 35  1  0
 39 16  1  0
 39  4  1  0
 40 25  1  0
 41 26  1  0
 42 25  1  0
 43 26  1  0
M  END
$$$$
