
     RDKit          3D

 42 49  0  0  0  0  0  0  0  0999 V2000
  173.8640  184.5870  167.4270 C   0  0  0  0  0  0  0  0  0  0  0  0
  175.0190  185.0090  171.4670 C   0  0  0  0  0  0  0  0  0  0  0  0
  173.9550  180.9830  172.1370 C   0  0  0  0  0  0  0  0  0  0  0  0
  174.2710  180.3640  167.9480 C   0  0  0  0  0  0  0  0  0  0  0  0
  173.8150  186.0110  167.1730 C   0  0  0  0  0  0  0  0  0  0  0  0
  175.6120  185.1760  172.7560 C   0  0  0  0  0  0  0  0  0  0  0  0
  173.7170  179.6020  172.4520 C   0  0  0  0  0  0  0  0  0  0  0  0
  174.1350  180.0550  166.5410 C   0  0  0  0  0  0  0  0  0  0  0  0
  174.2830  186.6350  168.2500 C   0  0  0  0  0  0  0  0  0  0  0  0
  175.2720  184.1030  173.4900 C   0  0  0  0  0  0  0  0  0  0  0  0
  173.9010  178.8790  171.3620 C   0  0  0  0  0  0  0  0  0  0  0  0
  173.8380  181.1800  165.8950 C   0  0  0  0  0  0  0  0  0  0  0  0
  174.6360  185.6320  169.2060 C   0  0  0  0  0  0  0  0  0  0  0  0
  174.4450  183.2560  172.6570 C   0  0  0  0  0  0  0  0  0  0  0  0
  174.2890  179.7840  170.2950 C   0  0  0  0  0  0  0  0  0  0  0  0
  173.7670  182.2490  166.8570 C   0  0  0  0  0  0  0  0  0  0  0  0
  173.3210  186.6830  165.8850 C   0  0  0  0  0  0  0  0  0  0  0  0
  175.6030  183.7090  174.9450 C   0  0  0  0  0  0  0  0  0  0  0  0
  173.7430  177.3480  171.3230 C   0  0  0  0  0  0  0  0  0  0  0  0
  173.6000  181.3520  164.3870 C   0  0  0  0  0  0  0  0  0  0  0  0
  171.9200  187.2190  166.0850 C   0  0  0  0  0  0  0  0  0  0  0  0
  176.2760  184.4320  175.8430 C   0  0  0  0  0  0  0  0  0  0  0  0
  172.1020  181.2290  164.1980 C   0  0  0  0  0  0  0  0  0  0  0  0
  170.9650  186.1120  165.7950 C   0  0  0  0  0  0  0  0  0  0  0  0
  171.4880  182.4390  163.5590 C   0  0  0  0  0  0  0  0  0  0  0  0
  173.4880  183.5700  166.5930 C   0  0  0  0  0  0  0  0  0  0  0  0
  175.1430  185.8890  170.4410 C   0  0  0  0  0  0  0  0  0  0  0  0
  173.8760  182.0540  172.9840 C   0  0  0  0  0  0  0  0  0  0  0  0
  174.5850  179.5000  168.9800 C   0  0  0  0  0  0  0  0  0  0  0  0
  174.4510  188.1480  168.5000 C   0  0  0  0  0  0  0  0  0  0  0  0
  176.4620  186.4310  173.0510 C   0  0  0  0  0  0  0  0  0  0  0  0
  173.2980  179.0500  173.8160 C   0  0  0  0  0  0  0  0  0  0  0  0
  174.3070  178.6700  165.8970 C   0  0  0  0  0  0  0  0  0  0  0  0
  174.0140  182.7450  169.8150 Fe  0  0  1  0  0  4  0  0  0  0  0  0
  174.3690  184.3890  168.6880 N   0  0  0  0  0  0  0  0  0  0  0  0
  174.3150  183.8360  171.4260 N   0  0  0  0  0  0  0  0  0  0  0  0
  174.3020  181.0580  170.8130 N   0  0  0  0  0  0  0  0  0  0  0  0
  174.0380  181.7160  168.0980 N   0  0  0  0  0  0  0  0  0  0  0  0
  169.9620  185.9880  166.5360 O   0  0  0  0  0  0  0  0  0  0  0  0
  170.3170  182.7610  163.8950 O   0  0  0  0  0  0  0  0  0  0  0  0
  171.2270  185.3550  164.8310 O   0  0  0  0  0  0  0  0  0  0  0  0
  172.1670  183.0670  162.7140 O   0  0  0  0  0  0  0  0  0  0  0  0
  5  1  1  0
  6  2  1  0
  7  3  1  0
  8  4  1  0
  9  5  1  0
 10  6  1  0
 11  7  1  0
 12  8  1  0
 13  9  1  0
 14 10  1  0
 15 11  1  0
 16 12  1  0
 17  5  1  0
 18 10  1  0
 19 11  1  0
 20 12  1  0
 21 17  1  0
 22 18  1  0
 23 20  1  0
 24 21  1  0
 25 23  1  0
 26 16  1  0
 26  1  1  0
 27  2  1  0
 27 13  1  0
 28  3  1  0
 28 14  1  0
 29 15  1  0
 29  4  1  0
 30  9  1  0
 31  6  1  0
 32  7  1  0
 33  8  1  0
 35  1  1  0
 35 34  1  0
 35 13  1  0
 36 34  1  0
 36 14  1  0
 36  2  1  0
 37 15  1  0
 37 34  1  0
 37  3  1  0
 38 16  1  0
 38  4  1  0
 38 34  1  0
 39 24  1  0
 40 25  1  0
 41 24  1  0
 42 25  1  0
M  END
$$$$
