
     RDKit          3D

 43 50  0  0  0  0  0  0  0  0999 V2000
  177.6110  189.1200  190.2530 C   0  0  0  0  0  0  0  0  0  0  0  0
  177.5180  187.7260  186.2280 C   0  0  0  0  0  0  0  0  0  0  0  0
  181.1210  189.9230  185.4620 C   0  0  0  0  0  0  0  0  0  0  0  0
  181.2660  191.1810  189.5410 C   0  0  0  0  0  0  0  0  0  0  0  0
  176.3100  188.6320  190.6140 C   0  0  0  0  0  0  0  0  0  0  0  0
  177.3370  187.2480  184.8850 C   0  0  0  0  0  0  0  0  0  0  0  0
  182.2960  190.6280  185.0320 C   0  0  0  0  0  0  0  0  0  0  0  0
  181.5930  191.3040  190.9490 C   0  0  0  0  0  0  0  0  0  0  0  0
  175.8320  187.9770  189.5680 C   0  0  0  0  0  0  0  0  0  0  0  0
  178.3550  187.6870  184.1560 C   0  0  0  0  0  0  0  0  0  0  0  0
  182.7620  191.3070  186.0950 C   0  0  0  0  0  0  0  0  0  0  0  0
  180.5800  190.8250  191.6520 C   0  0  0  0  0  0  0  0  0  0  0  0
  176.8170  188.0350  188.5170 C   0  0  0  0  0  0  0  0  0  0  0  0
  179.2090  188.4790  185.0090 C   0  0  0  0  0  0  0  0  0  0  0  0
  181.8870  191.0480  187.2070 C   0  0  0  0  0  0  0  0  0  0  0  0
  179.5980  190.3860  190.7100 C   0  0  0  0  0  0  0  0  0  0  0  0
  175.6160  188.8560  191.9680 C   0  0  0  0  0  0  0  0  0  0  0  0
  178.5520  187.3760  182.6650 C   0  0  0  0  0  0  0  0  0  0  0  0
  183.9670  192.2440  186.2890 C   0  0  0  0  0  0  0  0  0  0  0  0
  180.4300  190.7110  193.1830 C   0  0  0  0  0  0  0  0  0  0  0  0
  175.1650  190.3110  192.0870 C   0  0  0  0  0  0  0  0  0  0  0  0
  179.6680  186.7440  182.2900 C   0  0  0  0  0  0  0  0  0  0  0  0
  184.7990  192.6880  185.3520 C   0  0  0  0  0  0  0  0  0  0  0  0
  179.9730  192.0060  193.8290 C   0  0  0  0  0  0  0  0  0  0  0  0
  174.4760  190.5070  193.4010 C   0  0  0  0  0  0  0  0  0  0  0  0
  178.5680  191.8420  194.3250 C   0  0  0  0  0  0  0  0  0  0  0  0
  178.4210  189.8380  191.0700 C   0  0  0  0  0  0  0  0  0  0  0  0
  176.6860  187.4760  187.2800 C   0  0  0  0  0  0  0  0  0  0  0  0
  180.3650  189.1190  184.6510 C   0  0  0  0  0  0  0  0  0  0  0  0
  182.0350  191.5600  188.4730 C   0  0  0  0  0  0  0  0  0  0  0  0
  174.4730  187.2690  189.4850 C   0  0  0  0  0  0  0  0  0  0  0  0
  176.1890  186.3460  184.3970 C   0  0  0  0  0  0  0  0  0  0  0  0
  182.7970  190.5090  183.5740 C   0  0  0  0  0  0  0  0  0  0  0  0
  182.8850  191.8870  191.5350 C   0  0  0  0  0  0  0  0  0  0  0  0
  179.4900  189.4170  187.7870 Fe  0  0  2  0  0  4  0  0  0  0  0  0
  177.9030  188.7520  188.9610 N   0  0  0  0  0  0  0  0  0  0  0  0
  178.6660  188.4800  186.2710 N   0  0  0  0  0  0  0  0  0  0  0  0
  180.8970  190.1980  186.7870 N   0  0  0  0  0  0  0  0  0  0  0  0
  180.0250  190.6050  189.4230 N   0  0  0  0  0  0  0  0  0  0  0  0
  173.4020  189.8950  193.6190 O   0  0  0  0  0  0  0  0  0  0  0  0
  177.9690  190.7680  194.0870 O   0  0  0  0  0  0  0  0  0  0  0  0
  175.0070  191.2880  194.2250 O   0  0  0  0  0  0  0  0  0  0  0  0
  178.0400  192.7880  194.9530 O   0  0  0  0  0  0  0  0  0  0  0  0
  5  1  1  0
  6  2  1  0
  7  3  1  0
  8  4  1  0
  9  5  1  0
 10  6  1  0
 11  7  1  0
 12  8  1  0
 13  9  1  0
 14 10  1  0
 15 11  1  0
 16 12  1  0
 17  5  1  0
 18 10  1  0
 19 11  1  0
 20 12  1  0
 21 17  1  0
 22 18  1  0
 23 19  1  0
 24 20  1  0
 25 21  1  0
 26 24  1  0
 27 16  1  0
 27  1  1  0
 28 13  1  0
 28  2  1  0
 29 14  1  0
 29  3  1  0
 30 15  1  0
 30  4  1  0
 31  9  1  0
 32  6  1  0
 33  7  1  0
 34  8  1  0
 36 35  1  0
 36 13  1  0
 36  1  1  0
 37 14  1  0
 37 35  1  0
 37  2  1  0
 38 35  1  0
 38  3  1  0
 38 15  1  0
 39 35  1  0
 39 16  1  0
 39  4  1  0
 40 25  1  0
 41 26  1  0
 42 25  1  0
 43 26  1  0
M  END
$$$$
