@<TRIPOS>MOLECULE
E:\PythonProject\protein_automation\processed_pdbs\10GS\10GS_cleaned_ligands\MES_B211.pdb
 27 27 0 0 0
SMALL
GASTEIGER

@<TRIPOS>ATOM
      1 O           1.4683   -0.0401    0.3377 O.3     1  UNL1       -0.3772
      2 C           0.8341    1.1566   -0.1347 C.3     1  UNL1        0.0604
      3 C          -0.6603    1.1934    0.2425 C.3     1  UNL1        0.0225
      4 N          -1.4274    0.0088   -0.2187 N.3     1  UNL1       -0.2964
      5 C          -0.6926   -1.1922    0.2449 C.3     1  UNL1        0.0225
      6 C           0.7927   -1.2050   -0.1534 C.3     1  UNL1        0.0604
      7 C          -1.6119    0.0496   -1.6850 C.3     1  UNL1        0.0187
      8 C          -2.4936   -1.0773   -2.2139 C.3     1  UNL1        0.0766
      9 S          -2.6375   -1.0189   -3.9903 S.3     1  UNL1       -0.0872
     10 O          -1.1537   -1.1198   -4.5918 O.3     1  UNL1       -0.2758
     11 O          -3.3668    0.3452   -4.4005 O.3     1  UNL1       -0.2758
     12 O          -3.5027   -2.2926   -4.4156 O.3     1  UNL1       -0.2758
     13 H           0.9846    1.2409   -1.2161 H       1  UNL1        0.0572
     14 H           1.3492    2.0036    0.3318 H       1  UNL1        0.0572
     15 H          -1.1220    2.1176   -0.1241 H       1  UNL1        0.0449
     16 H          -0.7392    1.2275    1.3373 H       1  UNL1        0.0449
     17 H          -0.7535   -1.2056    1.3416 H       1  UNL1        0.0449
     18 H          -1.1821   -2.1140   -0.0815 H       1  UNL1        0.0449
     19 H           1.2828   -2.0777    0.2898 H       1  UNL1        0.0572
     20 H           0.9256   -1.2735   -1.2384 H       1  UNL1        0.0572
     21 H          -0.6541    0.0461   -2.2156 H       1  UNL1        0.0442
     22 H          -2.0986    0.9983   -1.9462 H       1  UNL1        0.0442
     23 H          -3.5081   -1.0215   -1.8040 H       1  UNL1        0.0515
     24 H          -2.0788   -2.0655   -1.9992 H       1  UNL1        0.0515
     25 H          -0.9206   -2.0174   -4.9125 H       1  UNL1        0.2424
     26 H          -4.1786    0.5757   -3.8916 H       1  UNL1        0.2424
     27 H          -4.3530   -2.0774   -4.8638 H       1  UNL1        0.2424
@<TRIPOS>BOND
     1     2     1    1
     2     2     3    1
     3     1     6    1
     4     3     4    1
     5     6     5    1
     6     4     5    1
     7     4     7    1
     8     7     8    1
     9     8     9    1
    10    12     9    1
    11     9    11    1
    12     9    10    1
    13     2    13    1
    14     2    14    1
    15     3    15    1
    16     3    16    1
    17     5    17    1
    18     5    18    1
    19     6    19    1
    20     6    20    1
    21     7    21    1
    22     7    22    1
    23     8    23    1
    24     8    24    1
    25    10    25    1
    26    11    26    1
    27    12    27    1
