@<TRIPOS>MOLECULE
E:\PythonProject\protein_automation\processed_pdbs\10GS\10GS_cleaned_ligands\VWW_A210.pdb
 60 61 0 0 0
SMALL
GASTEIGER

@<TRIPOS>ATOM
      1 N           5.7235    1.4757   -3.3496 N.3     1  UNK1       -0.3184
      2 C           6.0334    1.3434   -1.9158 C.3     1  UNK1        0.1037
      3 C           7.0550    0.2277   -1.7989 C.2     1  UNK1        0.3217
      4 O           8.2356    0.5938   -2.3598 O.3     1  UNK1       -0.4795
      5 C           4.8070    1.0999   -1.0216 C.3     1  UNK1       -0.0191
      6 C           5.1187    1.0987    0.4897 C.3     1  UNK1        0.0259
      7 C           5.7989    2.3574    0.9970 C.2     1  UNK1        0.2137
      8 O           6.0113    3.3415    0.3009 O.2     1  UNK1       -0.2758
      9 O           6.8670   -0.8798   -1.2913 O.2     1  UNK1       -0.2493
     10 N           6.1833    2.2896    2.3254 N.am    1  UNK1       -0.3033
     11 C           6.8313    3.4577    2.9500 C.3     1  UNK1        0.1083
     12 C           6.3942    3.5963    4.4205 C.3     1  UNK1        0.0210
     13 S           7.1083    4.9813    5.3667 S.3     1  UNK1       -0.1538
     14 C           6.6215    6.3840    4.3051 C.3     1  UNK1        0.0189
     15 C           7.2426    7.6742    4.7682 C.ar    1  UNK1       -0.0376
     16 C           8.4702    8.0976    4.2359 C.ar    1  UNK1       -0.0578
     17 C           6.6113    8.4661    5.7387 C.ar    1  UNK1       -0.0578
     18 C           9.0437    9.2995    4.6489 C.ar    1  UNK1       -0.0615
     19 C           7.1900    9.6649    6.1531 C.ar    1  UNK1       -0.0615
     20 C           8.4022   10.0835    5.6064 C.ar    1  UNK1       -0.0617
     21 C           8.3771    3.4120    2.7753 C.2     1  UNK1        0.2350
     22 O           9.0424    4.4432    2.7108 O.2     1  UNK1       -0.2737
     23 N           8.9843    2.1708    2.8653 N.am    2  UNK2       -0.2973
     24 C          10.4480    2.0062    2.6003 C.3     2  UNK2        0.1459
     25 C          10.7570    1.2046    1.3367 C.ar    2  UNK2       -0.0165
     26 C           9.7759    0.6012    0.5508 C.ar    2  UNK2       -0.0563
     27 C          10.1342   -0.2565   -0.4957 C.ar    2  UNK2       -0.0614
     28 C          11.4524   -0.4070   -0.8929 C.ar    2  UNK2       -0.0617
     29 C          12.4467    0.2265   -0.1671 C.ar    2  UNK2       -0.0614
     30 C          12.1021    1.0070    0.9487 C.ar    2  UNK2       -0.0563
     31 C          11.1499    1.3955    3.8517 C.2     2  UNK2        0.3298
     32 O          10.3455    1.3410    4.9436 O.3     2  UNK2       -0.4791
     33 O          12.3126    1.0319    3.9163 O.2     2  UNK2       -0.2485
     34 H           5.2273    2.3460   -3.5331 H       1  UNK1        0.1190
     35 H           5.1145    0.7097   -3.6424 H       1  UNK1        0.1190
     36 H           6.5334    2.2635   -1.6173 H       1  UNK1        0.0574
     37 H           8.2227    1.5366   -2.6504 H       1  UNK1        0.2951
     38 H           4.3494    0.1328   -1.2701 H       1  UNK1        0.0290
     39 H           4.0530    1.8690   -1.2272 H       1  UNK1        0.0290
     40 H           5.7568    0.2446    0.7473 H       1  UNK1        0.0359
     41 H           4.1788    0.9813    1.0401 H       1  UNK1        0.0359
     42 H           5.6708    1.6412    2.9133 H       1  UNK1        0.1495
     43 H           6.4847    4.3360    2.3969 H       1  UNK1        0.0603
     44 H           5.3030    3.6973    4.4680 H       1  UNK1        0.0399
     45 H           6.6390    2.6785    4.9669 H       1  UNK1        0.0399
     46 H           5.5294    6.4725    4.3051 H       1  UNK1        0.0425
     47 H           6.9295    6.2116    3.2708 H       1  UNK1        0.0425
     48 H           8.9865    7.4883    3.4945 H       1  UNK1        0.0621
     49 H           5.6678    8.1487    6.1746 H       1  UNK1        0.0621
     50 H           9.9912    9.6220    4.2262 H       1  UNK1        0.0618
     51 H           6.6953   10.2729    6.9059 H       1  UNK1        0.0618
     52 H           8.8499   11.0191    5.9301 H       1  UNK1        0.0618
     53 H           8.3966    1.3520    2.7604 H       2  UNK2        0.1499
     54 H          10.8813    3.0066    2.4755 H       2  UNK2        0.0666
     55 H           8.7177    0.7567    0.7304 H       2  UNK2        0.0621
     56 H           9.3816   -0.8121   -1.0347 H       2  UNK2        0.0618
     57 H          11.6926   -1.0284   -1.7566 H       2  UNK2        0.0618
     58 H          13.4807    0.0840   -0.4377 H       2  UNK2        0.0618
     59 H          12.9144    1.4402    1.5189 H       2  UNK2        0.0621
     60 H           9.4997    1.7881    4.7452 H       2  UNK2        0.2951
@<TRIPOS>BOND
     1     9     3    2
     2     2     5    1
     3     3     4    1
     4     5     6    1
     5     8     7    2
     6    14    13    1
     7    14    15    1
     8     6     7    1
     9     7    10   am
    10    13    12    1
    11    15    16   ar
    12    15    17   ar
    13    10    11    1
    14    16    18   ar
    15    11    12    1
    16    11    21    1
    17    17    19   ar
    18    18    20   ar
    19    19    20   ar
    20    21    23   am
    21    21    22    2
    22    23    24    1
    23    33    31    2
    24    26    27   ar
    25    26    25   ar
    26    27    28   ar
    27    31    24    1
    28    31    32    1
    29    24    25    1
    30    25    30   ar
    31    28    29   ar
    32    30    29   ar
    33     2     3    1
    34     2     1    1
    35     1    34    1
    36     1    35    1
    37     2    36    1
    38     4    37    1
    39     5    38    1
    40     5    39    1
    41     6    40    1
    42     6    41    1
    43    10    42    1
    44    11    43    1
    45    12    44    1
    46    12    45    1
    47    14    46    1
    48    14    47    1
    49    16    48    1
    50    17    49    1
    51    18    50    1
    52    19    51    1
    53    20    52    1
    54    23    53    1
    55    24    54    1
    56    26    55    1
    57    27    56    1
    58    28    57    1
    59    29    58    1
    60    30    59    1
    61    32    60    1
