@<TRIPOS>MOLECULE
ZINC00016956
 23 24 0 0 0
SMALL
GASTEIGER

@<TRIPOS>ATOM
      1 C           2.7350   -2.2904    0.8549 C.ar    1  UNL1        0.0524
      2 C           2.8727   -3.4067    1.6027 C.ar    1  UNL1        0.2036
      3 C           1.7362   -3.9397    2.2610 C.ar    1  UNL1        0.2894
      4 O           1.8343   -4.9479    2.9371 O.2     1  UNL1       -0.2646
      5 N           0.5455   -3.3206    2.1314 N.ar    1  UNL1       -0.2725
      6 H          -0.2607   -3.6905    2.5932 H       1  UNL1        0.1735
      7 C           0.4370   -2.2070    1.3834 C.ar    1  UNL1        0.3315
      8 O          -0.6438   -1.6603    1.2759 O.2     1  UNL1       -0.2464
      9 N           1.5072   -1.6895    0.7533 N.ar    1  UNL1       -0.2713
     10 C           1.3576   -0.4761   -0.0538 C.3     1  UNL1        0.1394
     11 H           1.6482   -0.6708   -1.0861 H       1  UNL1        0.0839
     12 C           2.2112    0.6741    0.5373 C.3     1  UNL1       -0.0051
     13 C           1.4478    1.9147   -0.0015 C.3     1  UNL1       -0.0253
     14 C          -0.0173    1.4282    0.0099 C.3     1  UNL1        0.0503
     15 O           0.0021   -0.0041    0.0020 O.3     1  UNL1       -0.3564
     16 F           4.0762   -4.0096    1.7179 F       1  UNL1       -0.1983
     17 H           3.5886   -1.8714    0.3428 H       1  UNL1        0.0842
     18 H           2.2022    0.6500    1.6270 H       1  UNL1        0.0309
     19 H           3.2313    0.6430    0.1545 H       1  UNL1        0.0309
     20 H           1.7681    2.1574   -1.0147 H       1  UNL1        0.0289
     21 H           1.5780    2.7690    0.6628 H       1  UNL1        0.0289
     22 H          -0.5359    1.7958   -0.8755 H       1  UNL1        0.0561
     23 H          -0.5189    1.7862    0.9090 H       1  UNL1        0.0561
@<TRIPOS>BOND
     1     1     9   ar
     2     1     2   ar
     3     1    17    1
     4     2     3   ar
     5     2    16    1
     6     3     4    2
     7     3     5   ar
     8     5     6    1
     9     5     7   ar
    10     7     8    2
    11     7     9   ar
    12     9    10    1
    13    10    11    1
    14    10    15    1
    15    10    12    1
    16    12    13    1
    17    12    18    1
    18    12    19    1
    19    13    14    1
    20    13    20    1
    21    13    21    1
    22    14    15    1
    23    14    22    1
    24    14    23    1
