@<TRIPOS>MOLECULE
ZINC03201876
 32 34 0 0 0
SMALL
GASTEIGER

@<TRIPOS>ATOM
      1 C2          1.1074    3.3957    0.0098 C.ar    1    A1        0.1205
      2 N1          1.1157    2.0750    0.0025 N.ar    1    A1       -0.2188
      3 C6         -0.0167    1.3796    0.0096 C.ar    1    A1        0.1472
      4 C5         -1.2339    2.0822    0.0191 C.ar    1    A1        0.1473
      5 C4         -1.1891    3.4864    0.0318 C.ar    1    A1        0.1674
      6 N3         -0.0075    4.0951    0.0238 N.ar    1    A1       -0.2159
      7 N9         -2.4951    3.9064    0.0466 N.ar    1    A1       -0.2855
      8 C8         -3.2823    2.7934    0.0486 C.ar    1    A1        0.1004
      9 N7         -2.5404    1.7243    0.0359 N.ar    1    A1       -0.2306
     10 C1*        -2.9587    5.2960    0.0577 C.3     1    A1        0.1667
     11 H1*        -2.2904    5.9135   -0.5424 H       1    A1        0.0866
     12 C2*        -3.0001    5.8227    1.5083 C.3     1    A1        0.1285
     13 H2*        -3.0744    4.9989    2.2182 H       1    A1        0.0665
     14 C3*        -4.2984    6.6749    1.5127 C.3     1    A1        0.1135
     15 H3*        -4.1115    7.6776    1.1282 H       1    A1        0.0647
     16 C4*        -5.1880    5.8607    0.5398 C.3     1    A1        0.1126
     17 H4*        -5.6601    5.0299    1.0642 H       1    A1        0.0647
     18 O4*        -4.2895    5.3686   -0.4672 O.3     1    A1       -0.3457
     19 C5*        -6.2495    6.7638   -0.0913 C.3     1    A1        0.0730
     20 O5*        -7.0904    5.9857   -0.9454 O.3     1    A1       -0.3924
     21 O3*        -4.8769    6.7270    2.8183 O.3     1    A1       -0.3864
     22 O2*        -1.8578    6.6348    1.7873 O.3     1    A1       -0.3847
     23 N6          0.0021   -0.0041    0.0020 N.pl3   1    A1       -0.3413
     24 H2          2.0507    3.9214    0.0036 H       1    A1        0.1048
     25 H8         -4.3622    2.7982    0.0594 H       1    A1        0.1030
     26 H5*1       -6.8521    7.2199    0.6942 H       1    A1        0.0584
     27 H5*2       -5.7619    7.5447   -0.6748 H       1    A1        0.0584
     28 H5*        -7.7881    6.4947   -1.3802 H       1    A1        0.2095
     29 H3*        -5.7424    7.1573    2.8481 H       1    A1        0.2100
     30 H2*        -1.8376    6.9896    2.6866 H       1    A1        0.2101
     31 H61         0.4702   -0.3266   -0.8208 H       1    A1        0.1438
     32 H62        -0.8313   -0.5005    0.0073 H       1    A1        0.1438
@<TRIPOS>BOND
     1     1     6   ar
     2     1     2   ar
     3     1    24    1
     4     2     3   ar
     5     3     4   ar
     6     3    23    1
     7     4     9   ar
     8     4     5   ar
     9     5     6   ar
    10     5     7   ar
    11     7     8   ar
    12     7    10    1
    13     8     9   ar
    14     8    25    1
    15    10    11    1
    16    10    18    1
    17    10    12    1
    18    12    13    1
    19    12    14    1
    20    12    22    1
    21    14    15    1
    22    14    16    1
    23    14    21    1
    24    16    17    1
    25    16    18    1
    26    16    19    1
    27    19    20    1
    28    19    26    1
    29    19    27    1
    30    20    28    1
    31    21    29    1
    32    22    30    1
    33    23    31    1
    34    23    32    1
