@<TRIPOS>MOLECULE
ZINC03830365
 55 58 0 0 0
SMALL
GASTEIGER

@<TRIPOS>ATOM
      1 C          -1.0755    3.4391    1.5602 C.3     1  UNL1       -0.0553
      2 C          -1.2553    3.1216    0.0744 C.3     1  UNL1       -0.0032
      3 C          -0.0651    3.7280   -0.6184 C.3     1  UNL1       -0.0363
      4 C           1.2130    3.1244   -0.0149 C.3     1  UNL1        0.0107
      5 C           1.1259    1.6223   -0.0452 C.2     1  UNL1        0.1564
      6 O           2.1531    0.9747   -0.0757 O.2     1  UNL1       -0.2927
      7 C          -0.1038    0.9450   -0.0398 C.2     1  UNL1       -0.0155
      8 C          -1.2774    1.6282   -0.0210 C.2     1  UNL1       -0.0382
      9 C          -2.5487    0.9042   -0.1443 C.2     1  UNL1       -0.0616
     10 C          -3.5279    1.5064   -0.8688 C.2     1  UNL1       -0.0801
     11 C          -3.1549    2.8510   -1.4323 C.3     1  UNL1       -0.0156
     12 H          -2.2815    2.6416   -2.0499 H       1  UNL1        0.0349
     13 C          -2.6103    3.7059   -0.3098 C.3     1  UNL1       -0.0251
     14 H          -3.2719    3.5988    0.5498 H       1  UNL1        0.0315
     15 C          -2.4933    5.1902   -0.6042 C.3     1  UNL1       -0.0483
     16 C          -3.3013    5.6574   -1.8165 C.3     1  UNL1       -0.0444
     17 C          -4.5439    4.8080   -1.8507 C.3     1  UNL1        0.0001
     18 C          -4.1225    3.4754   -2.3628 C.3     1  UNL1       -0.0264
     19 H          -3.6637    3.5925   -3.3446 H       1  UNL1        0.0313
     20 C          -5.4952    2.8021   -2.5208 C.3     1  UNL1       -0.0465
     21 C          -6.3859    3.9442   -3.0835 C.3     1  UNL1       -0.0232
     22 C          -5.7180    5.1829   -2.7191 C.3     1  UNL1        0.0721
     23 C          -5.2410    5.9446   -3.9573 C.3     1  UNL1       -0.0184
     24 C          -6.4462    6.3152   -4.8238 C.3     1  UNL1       -0.0106
     25 C          -5.9764    7.0654   -6.0434 C.2     1  UNL1        0.0418
     26 O          -4.7984    7.2816   -6.2031 O.co2   1  UNL1       -0.5498
     27 O          -6.6505    5.9726   -1.9784 O.3     1  UNL1       -0.3880
     28 C          -5.0454    4.6333   -0.4159 C.3     1  UNL1       -0.0567
     29 H          -1.0438    4.5197    1.6996 H       1  UNL1        0.0238
     30 H          -1.9111    3.0244    2.1241 H       1  UNL1        0.0238
     31 H          -0.1436    2.9994    1.9155 H       1  UNL1        0.0238
     32 H          -0.0658    4.8077   -0.4692 H       1  UNL1        0.0278
     33 H          -0.1082    3.5031   -1.6841 H       1  UNL1        0.0278
     34 H           1.3122    3.4320    0.9314 H       1  UNL1        0.0345
     35 H           2.0764    3.4496   -0.5954 H       1  UNL1        0.0345
     36 H          -0.1167   -0.1348   -0.0554 H       1  UNL1        0.0655
     37 H          -2.6985   -0.0600    0.3186 H       1  UNL1        0.0617
     38 H          -4.4965    1.0559   -1.0277 H       1  UNL1        0.0575
     39 H          -2.8311    5.7445    0.2715 H       1  UNL1        0.0269
     40 H          -1.4436    5.4268   -0.7784 H       1  UNL1        0.0269
     41 H          -3.5693    6.7080   -1.7051 H       1  UNL1        0.0272
     42 H          -2.7237    5.5122   -2.7295 H       1  UNL1        0.0272
     43 H          -5.4389    1.9740   -3.2274 H       1  UNL1        0.0269
     44 H          -5.8688    2.4586   -1.5562 H       1  UNL1        0.0269
     45 H          -6.4262    3.8861   -4.1712 H       1  UNL1        0.0293
     46 H          -7.3911    3.8744   -2.6678 H       1  UNL1        0.0293
     47 H          -4.7229    6.8524   -3.6482 H       1  UNL1        0.0297
     48 H          -4.5606    5.3154   -4.5312 H       1  UNL1        0.0297
     49 H          -6.9643    5.4074   -5.1330 H       1  UNL1        0.0326
     50 H          -7.1266    6.9443   -4.2500 H       1  UNL1        0.0326
     51 H          -7.4274    6.2435   -2.4865 H       1  UNL1        0.2102
     52 H          -4.7223    5.4815    0.1877 H       1  UNL1        0.0236
     53 H          -6.1341    4.5807   -0.4153 H       1  UNL1        0.0236
     54 H          -4.6370    3.7133    0.0023 H       1  UNL1        0.0236
     55 O          -6.8665    7.4936   -6.9523 O.co2   1  UNL1       -0.5498
@<TRIPOS>UNITY_ATOM_ATTR
55 1
charge -1
@<TRIPOS>BOND
     1     1     2    1
     2     1    29    1
     3     1    30    1
     4     1    31    1
     5     2     8    1
     6     2    13    1
     7     2     3    1
     8     3     4    1
     9     3    32    1
    10     3    33    1
    11     4     5    1
    12     4    34    1
    13     4    35    1
    14     5     6    2
    15     5     7    1
    16     7     8    2
    17     7    36    1
    18     8     9    1
    19     9    10    2
    20     9    37    1
    21    10    11    1
    22    10    38    1
    23    11    12    1
    24    11    18    1
    25    11    13    1
    26    13    14    1
    27    13    15    1
    28    15    16    1
    29    15    39    1
    30    15    40    1
    31    16    17    1
    32    16    41    1
    33    16    42    1
    34    17    22    1
    35    17    18    1
    36    17    28    1
    37    18    19    1
    38    18    20    1
    39    20    21    1
    40    20    43    1
    41    20    44    1
    42    21    22    1
    43    21    45    1
    44    21    46    1
    45    22    23    1
    46    22    27    1
    47    23    24    1
    48    23    47    1
    49    23    48    1
    50    24    25    1
    51    24    49    1
    52    24    50    1
    53    25    26   ar
    54    25    55   ar
    55    27    51    1
    56    28    52    1
    57    28    53    1
    58    28    54    1
