@<TRIPOS>MOLECULE
ZINC15880092
 23 23 0 0 0
SMALL
GASTEIGER

@<TRIPOS>ATOM
      1 C          -1.9917    7.7196   -2.2434 C.3     1  UNL1       -0.0449
      2 C          -1.0830    5.7661   -1.1387 C.3     1  UNL1       -0.0284
      3 C          -0.2167    5.2976    0.0322 C.3     1  UNL1        0.0298
      4 C          -0.1317    3.7930    0.0238 C.ar    1  UNL1        0.0463
      5 C           1.1065    3.1788    0.0086 C.ar    1  UNL1       -0.0402
      6 C           1.1736    1.7941    0.0005 C.ar    1  UNL1       -0.0586
      7 C          -0.0126    1.0758    0.0080 C.ar    1  UNL1       -0.0436
      8 C          -1.2136    1.7592    0.0173 C.ar    1  UNL1        0.0279
      9 N          -1.2394    3.0777    0.0305 N.ar    1  UNL1       -0.2597
     10 H          -1.5530    7.3996   -3.1885 H       1  UNL1        0.0777
     11 H          -2.9988    7.3122   -2.1539 H       1  UNL1        0.0777
     12 H          -2.0363    8.8083   -2.2136 H       1  UNL1        0.0777
     13 H          -0.6380    5.4325   -2.0761 H       1  UNL1        0.0817
     14 H          -2.0837    5.3451   -1.0415 H       1  UNL1        0.0817
     15 H          -0.6617    5.6311    0.9697 H       1  UNL1        0.0380
     16 H           0.7840    5.7186   -0.0650 H       1  UNL1        0.0380
     17 H           2.0102    3.7701    0.0035 H       1  UNL1        0.0635
     18 H           2.1270    1.2869   -0.0110 H       1  UNL1        0.0619
     19 H           0.0021   -0.0041    0.0020 H       1  UNL1        0.0633
     20 H          -2.1418    1.2071    0.0183 H       1  UNL1        0.0829
     21 N          -1.1610    7.2390   -1.1232 N.4     1  UNL1        0.2251
     22 H          -1.5773    7.5468   -0.2365 H       1  UNL1        0.2011
     23 H          -0.2154    7.6292   -1.2110 H       1  UNL1        0.2011
@<TRIPOS>UNITY_ATOM_ATTR
21 1
charge 1
@<TRIPOS>BOND
     1     1    10    1
     2     1    11    1
     3     1    12    1
     4     1    21    1
     5     2     3    1
     6     2    13    1
     7     2    14    1
     8     2    21    1
     9     3     4    1
    10     3    15    1
    11     3    16    1
    12     4     9   ar
    13     4     5   ar
    14     5     6   ar
    15     5    17    1
    16     6     7   ar
    17     6    18    1
    18     7     8   ar
    19     7    19    1
    20     8     9   ar
    21     8    20    1
    22    21    22    1
    23    21    23    1
