@<TRIPOS>MOLECULE
ZINC03831121
 60 63 0 0 0
SMALL
GASTEIGER

@<TRIPOS>ATOM
      1 C          -0.1427    7.5711    2.3089 C.3     1  UNL1       -0.0486
      2 C           0.4045    7.2330    3.6972 C.3     1  UNL1        0.0366
      3 CA         -0.6293    7.5583    4.8172 C.3     1  UNL1        0.0807
      4 HA         -0.1205    7.5899    5.7806 H       1  UNL1        0.0576
      5 N          -1.6706    6.5316    4.8520 N.am    1  UNL1       -0.2761
      6 C          -1.2057    5.1507    4.5719 C.3     1  UNL1        0.1003
      7 H          -1.3288    4.4086    5.3606 H       1  UNL1        0.0640
      8 S           0.5154    5.3845    3.9590 S.3     1  UNL1       -0.1275
      9 CA         -2.2418    5.1320    3.4388 C.3     1  UNL1        0.1277
     10 HA         -3.0335    4.3965    3.5819 H       1  UNL1        0.0622
     11 C          -2.6214    6.5304    3.8794 C.2     1  UNL1        0.2401
     12 O          -3.4494    7.3354    3.5089 O.2     1  UNL1       -0.2734
     13 N          -1.6488    5.0777    2.1003 N.am    1  UNL1       -0.2999
     14 C          -2.3644    4.5951    1.0652 C.2     1  UNL1        0.2386
     15 O          -3.4994    4.2058    1.2418 O.2     1  UNL1       -0.2734
     16 CA         -1.7543    4.5392   -0.3116 C.3     1  UNL1        0.1261
     17 HA         -1.4790    5.5453   -0.6282 H       1  UNL1        0.0646
     18 C          -0.5250    3.6681   -0.2814 C.ar    1  UNL1       -0.0184
     19 C          -0.6516    2.2922   -0.3252 C.ar    1  UNL1       -0.0563
     20 C           0.4758    1.4930   -0.2916 C.ar    1  UNL1       -0.0614
     21 C           1.7303    2.0699   -0.2254 C.ar    1  UNL1       -0.0617
     22 C           1.8571    3.4459   -0.1874 C.ar    1  UNL1       -0.0614
     23 C           0.7295    4.2450   -0.2157 C.ar    1  UNL1       -0.0563
     24 N          -2.7264    3.9796   -1.2541 N.am    1  UNL1       -0.2836
     25 C          -2.6412    4.2769   -2.5659 C.2     1  UNL1        0.3106
     26 O          -1.8119    5.0755   -2.9555 O.2     1  UNL1       -0.2521
     27 N          -3.4757    3.6886   -3.4457 N.am    1  UNL1       -0.2069
     28 C          -4.5784    2.7801   -3.0977 C.3     1  UNL1        0.0430
     29 C          -5.1942    2.4078   -4.4604 C.3     1  UNL1        0.0552
     30 N          -4.3731    3.1461   -5.4316 N.am    1  UNL1       -0.1583
     31 C          -3.4359    3.8431   -4.7757 C.2     1  UNL1        0.3313
     32 O          -2.6207    4.5487   -5.3368 O.2     1  UNL1       -0.2503
     33 S          -4.5788    3.1248   -7.0746 S.O2    1  UNL1        0.0459
     34 O          -3.2942    3.4214   -7.6047 O.2     1  UNL1       -0.1552
     35 O          -5.2040    1.8778   -7.3456 O.2     1  UNL1       -0.1552
     36 C          -5.7264    4.4869   -7.4185 C.3     1  UNL1        0.0739
     37 C          -1.2589    8.8995    4.5419 C.2     1  UNL1        0.0635
     38 O          -2.4601    9.0229    4.5832 O.co2   1  UNL1       -0.5478
     39 C           1.7469    7.9217    3.9512 C.3     1  UNL1       -0.0486
     40 H          -0.2186    8.6532    2.2019 H       1  UNL1        0.0244
     41 H           0.5302    7.1770    1.5473 H       1  UNL1        0.0244
     42 H          -1.1294    7.1240    2.1885 H       1  UNL1        0.0244
     43 H          -0.7410    5.3890    1.9590 H       1  UNL1        0.1496
     44 H          -1.6315    1.8416   -0.3814 H       1  UNL1        0.0621
     45 H           0.3767    0.4180   -0.3216 H       1  UNL1        0.0618
     46 H           2.6113    1.4456   -0.2037 H       1  UNL1        0.0618
     47 H           2.8372    3.8966   -0.1361 H       1  UNL1        0.0618
     48 H           0.8286    5.3200   -0.1860 H       1  UNL1        0.0621
     49 H          -3.4312    3.3951   -0.9340 H       1  UNL1        0.1513
     50 H          -4.1976    1.8914   -2.5943 H       1  UNL1        0.0486
     51 H          -5.3117    3.2902   -2.4730 H       1  UNL1        0.0486
     52 H          -5.1192    1.3343   -4.6337 H       1  UNL1        0.0499
     53 H          -6.2332    2.7331   -4.5124 H       1  UNL1        0.0499
     54 H          -5.2883    5.4255   -7.0791 H       1  UNL1        0.0482
     55 H          -5.9154    4.5408   -8.4906 H       1  UNL1        0.0482
     56 H          -6.6650    4.3128   -6.8923 H       1  UNL1        0.0482
     57 H           2.1544    7.5832    4.9038 H       1  UNL1        0.0244
     58 H           2.4414    7.6710    3.1494 H       1  UNL1        0.0244
     59 H           1.6013    9.0015    3.9814 H       1  UNL1        0.0244
     60 OXT        -0.4852    9.9570    4.2508 O.co2   1  UNL1       -0.5478
@<TRIPOS>UNITY_ATOM_ATTR
60 1
charge -1
@<TRIPOS>BOND
     1     1     2    1
     2     1    40    1
     3     1    41    1
     4     1    42    1
     5     2     8    1
     6     2     3    1
     7     2    39    1
     8     3     4    1
     9     3     5    1
    10     3    37    1
    11     5    11   am
    12     5     6    1
    13     6     7    1
    14     6     8    1
    15     6     9    1
    16     9    10    1
    17     9    11    1
    18     9    13    1
    19    11    12    2
    20    13    14   am
    21    13    43    1
    22    14    15    2
    23    14    16    1
    24    16    17    1
    25    16    18    1
    26    16    24    1
    27    18    23   ar
    28    18    19   ar
    29    19    20   ar
    30    19    44    1
    31    20    21   ar
    32    20    45    1
    33    21    22   ar
    34    21    46    1
    35    22    23   ar
    36    22    47    1
    37    23    48    1
    38    24    25   am
    39    24    49    1
    40    25    26    2
    41    25    27   am
    42    27    31   am
    43    27    28    1
    44    28    29    1
    45    28    50    1
    46    28    51    1
    47    29    30    1
    48    29    52    1
    49    29    53    1
    50    30    31   am
    51    30    33    1
    52    31    32    2
    53    33    34    2
    54    33    35    2
    55    33    36    1
    56    36    54    1
    57    36    55    1
    58    36    56    1
    59    37    38   ar
    60    37    60   ar
    61    39    57    1
    62    39    58    1
    63    39    59    1
