@<TRIPOS>MOLECULE
ZINC04096125
 55 57 0 0 0
SMALL
GASTEIGER

@<TRIPOS>ATOM
      1 C          -3.2469   -0.8958   -5.9322 C.ar    0  UNK0       -0.0479
      2 C          -3.1726   -0.9025   -4.5581 C.ar    0  UNK0       -0.0401
      3 C          -2.1468   -1.5930   -3.9184 C.ar    0  UNK0        0.0272
      4 C          -1.1900   -2.2737   -4.6662 C.ar    0  UNK0       -0.0401
      5 C          -1.2619   -2.2752   -6.0404 C.ar    0  UNK0       -0.0479
      6 C          -2.2909   -1.5831   -6.6858 C.ar    0  UNK0        0.0368
      7 C          -2.3680   -1.5784   -8.1589 C.2     0  UNK0        0.2446
      8 O          -3.2638   -0.9764   -8.7190 O.2     0  UNK0       -0.2702
      9 N          -1.4455   -2.2415   -8.8841 N.am    1  GLU1       -0.3034
     10 CA         -1.5221   -2.2369  -10.3471 C.3     1  GLU1        0.0632
     11 HA         -2.5673   -2.2403  -10.6563 H       1  GLU1        0.0560
     12 CB         -0.8231   -3.4812  -10.8984 C.3     1  GLU1       -0.0241
     13 CG         -1.5857   -4.7321  -10.4571 C.3     1  GLU1       -0.0112
     14 CD         -0.8972   -5.9578  -11.0000 C.2     1  GLU1        0.0418
     15 OE1         0.1009   -5.8426  -11.6711 O.co2   1  GLU1       -0.5498
     16 C          -0.8442   -1.0016  -10.8817 C.2     1  GLU1        0.0620
     17 O          -0.3481   -0.2068  -10.1189 O.co2   1  GLU1       -0.5479
     18 N          -2.0747   -1.5982   -2.5298 N.pl3   0  UNK0       -0.3420
     19 C          -0.9960   -2.3243   -1.8551 C.3     0  UNK0        0.0296
     20 C          -1.1473   -2.1705   -0.3403 C.3     0  UNK0        0.0619
     21 H          -2.0609   -2.6643   -0.0095 H       0  UNK0        0.0535
     22 C           0.0646   -2.7923    0.3690 C.3     0  UNK0        0.0310
     23 N           1.2659   -2.0420   -0.0242 N.pl3   0  UNK0       -0.3255
     24 C           1.2250   -0.6581   -0.0216 C.ar    0  UNK0        0.1493
     25 C           0.0007   -0.0020   -0.0066 C.ar    0  UNK0        0.1416
     26 C          -0.0209    1.3975   -0.0079 C.ar    0  UNK0        0.2761
     27 O          -1.0800    2.0057   -0.0000 O.2     0  UNK0       -0.2657
     28 N           1.1561    2.0604   -0.0237 N.ar    0  UNK0       -0.2937
     29 H           1.1653    3.0604   -0.0269 H       0  UNK0        0.1716
     30 C           2.3293    1.3708   -0.0353 C.ar    0  UNK0        0.1948
     31 N           2.3569    0.0549   -0.0341 N.ar    0  UNK0       -0.1994
     32 N           3.5121    2.0642   -0.0482 N.pl3   0  UNK0       -0.3289
     33 N          -1.1984   -0.7424    0.0118 N.am    0  UNK0       -0.2607
     34 C          -2.3653   -0.1561    0.3448 C.2     0  UNK0        0.2073
     35 O          -3.4029   -0.7794    0.2614 O.2     0  UNK0       -0.2790
     36 H          -4.0429   -0.3600   -6.4279 H       0  UNK0        0.0626
     37 H          -3.9109   -0.3717   -3.9753 H       0  UNK0        0.0636
     38 H          -0.3927   -2.8045   -4.1672 H       0  UNK0        0.0636
     39 H          -0.5218   -2.8071   -6.6199 H       0  UNK0        0.0626
     40 H          -0.7309   -2.7218   -8.4374 H       1  GLU1        0.1496
     41 HB1        -0.8020   -3.4338  -11.9871 H       1  GLU1        0.0290
     42 HB2         0.1970   -3.5241  -10.5167 H       1  GLU1        0.0290
     43 HG1        -1.6068   -4.7795   -9.3683 H       1  GLU1        0.0325
     44 HG2        -2.6058   -4.6893  -10.8388 H       1  GLU1        0.0325
     45 H          -2.7386   -1.1210   -2.0079 H       0  UNK0        0.1461
     46 H          -0.0339   -1.9182   -2.1672 H       0  UNK0        0.0480
     47 H          -1.0477   -3.3804   -2.1200 H       0  UNK0        0.0480
     48 H          -0.0702   -2.7302    1.4488 H       0  UNK0        0.0480
     49 H           0.1692   -3.8355    0.0708 H       0  UNK0        0.0480
     50 H           2.0758   -2.5098   -0.2814 H       0  UNK0        0.1476
     51 H           4.3553    1.5847   -0.0563 H       0  UNK0        0.1451
     52 H           3.5057    3.0342   -0.0493 H       0  UNK0        0.1451
     53 H          -2.3769    0.8686    0.6858 H       0  UNK0        0.1257
     54 OE2        -1.3929   -7.1774  -10.7382 O.co2   1  GLU1       -0.5498
     55 OXT        -0.7917   -0.7845  -12.2053 O.co2   1  GLU1       -0.5479
@<TRIPOS>UNITY_ATOM_ATTR
54 1
charge -1
55 1
charge -1
@<TRIPOS>BOND
     1     1     6   ar
     2     1     2   ar
     3     1    36    1
     4     2     3   ar
     5     2    37    1
     6     3     4   ar
     7     3    18    1
     8     4     5   ar
     9     4    38    1
    10     5     6   ar
    11     5    39    1
    12     6     7    1
    13     7     8    2
    14     7     9   am
    15     9    10    1
    16     9    40    1
    17    10    11    1
    18    10    12    1
    19    10    16    1
    20    12    13    1
    21    12    41    1
    22    12    42    1
    23    13    14    1
    24    13    43    1
    25    13    44    1
    26    14    15   ar
    27    14    54   ar
    28    16    17   ar
    29    16    55   ar
    30    18    19    1
    31    18    45    1
    32    19    20    1
    33    19    46    1
    34    19    47    1
    35    20    21    1
    36    20    33    1
    37    20    22    1
    38    22    23    1
    39    22    48    1
    40    22    49    1
    41    23    24    1
    42    23    50    1
    43    24    31   ar
    44    24    25   ar
    45    25    26   ar
    46    25    33    1
    47    26    27    2
    48    26    28   ar
    49    28    29    1
    50    28    30   ar
    51    30    31   ar
    52    30    32    1
    53    32    51    1
    54    32    52    1
    55    33    34   am
    56    34    35    2
    57    34    53    1
