@<TRIPOS>MOLECULE
ZINC03830379
 61 61 0 0 0
SMALL
GASTEIGER

@<TRIPOS>ATOM
      1 C          -7.1501   -1.1623   -5.7930 C.3     1  UNL1       -0.0653
      2 C          -6.9552    0.2763   -5.3098 C.3     1  UNL1       -0.0559
      3 C          -6.2840    0.2660   -3.9349 C.3     1  UNL1       -0.0532
      4 C          -6.0891    1.7045   -3.4517 C.3     1  UNL1       -0.0502
      5 C          -5.4179    1.6942   -2.0768 C.3     1  UNL1       -0.0206
      6 C          -5.2230    3.1327   -1.5936 C.3     1  UNL1        0.0814
      7 C          -6.5835    3.8253   -1.4918 C.3     1  UNL1       -0.0324
      8 C          -4.5619    3.1225   -0.2394 C.2     1  UNL1       -0.0567
      9 C          -3.4032    3.7103   -0.0717 C.2     1  UNL1       -0.0794
     10 C          -2.7421    3.7001    1.2825 C.3     1  UNL1        0.0087
     11 H          -3.3792    3.2050    2.0153 H       1  UNL1        0.0372
     12 C          -2.4144    5.1442    1.7366 C.3     1  UNL1        0.0641
     13 H          -2.2567    5.1868    2.8143 H       1  UNL1        0.0600
     14 C          -1.1001    5.4515    0.9769 C.3     1  UNL1        0.0001
     15 C          -0.3224    4.1197    1.0122 C.3     1  UNL1        0.0613
     16 H           0.3823    4.1200    1.8437 H       1  UNL1        0.0597
     17 C          -1.3664    3.0061    1.2065 C.3     1  UNL1       -0.0029
     18 H          -1.1683    2.4659    2.1323 H       1  UNL1        0.0335
     19 C          -1.3309    2.0415    0.0195 C.3     1  UNL1       -0.0290
     20 C          -0.0157    1.3058    0.0092 C.2     1  UNL1       -0.0876
     21 C           0.0021   -0.0041    0.0020 C.2     1  UNL1       -0.0879
     22 C           1.3172   -0.7397   -0.0145 C.3     1  UNL1       -0.0344
     23 C           1.3696   -1.7171    1.1615 C.3     1  UNL1       -0.0445
     24 C           2.7049   -2.4640    1.1447 C.3     1  UNL1       -0.0129
     25 C           2.7565   -3.4267    2.3030 C.2     1  UNL1        0.0418
     26 O           1.8213   -3.5072    3.0638 O.co2   1  UNL1       -0.5498
     27 O           0.3750    3.9273   -0.2201 O.3     1  UNL1       -0.3914
     28 O          -3.4501    6.0464    1.3423 O.3     1  UNL1       -0.3911
     29 O          -4.3972    3.8391   -2.5215 O.3     1  UNL1       -0.3848
     30 H          -6.1808   -1.6556   -5.8655 H       1  UNL1        0.0230
     31 H          -7.7800   -1.7011   -5.0852 H       1  UNL1        0.0230
     32 H          -7.6282   -1.1549   -6.7725 H       1  UNL1        0.0230
     33 H          -7.9244    0.7697   -5.2372 H       1  UNL1        0.0263
     34 H          -6.3252    0.8151   -6.0176 H       1  UNL1        0.0263
     35 H          -5.3147   -0.2274   -4.0074 H       1  UNL1        0.0265
     36 H          -6.9139   -0.2729   -3.2271 H       1  UNL1        0.0265
     37 H          -7.0583    2.1979   -3.3792 H       1  UNL1        0.0266
     38 H          -5.4592    2.2433   -4.1595 H       1  UNL1        0.0266
     39 H          -4.4486    1.2008   -2.1494 H       1  UNL1        0.0296
     40 H          -6.0478    1.1553   -1.3690 H       1  UNL1        0.0296
     41 H          -6.4446    4.8501   -1.1475 H       1  UNL1        0.0260
     42 H          -7.0616    3.8326   -2.4713 H       1  UNL1        0.0260
     43 H          -7.2134    3.2864   -0.7840 H       1  UNL1        0.0260
     44 H          -5.0434    2.6307    0.5929 H       1  UNL1        0.0597
     45 H          -2.9217    4.2021   -0.9040 H       1  UNL1        0.0574
     46 H          -0.5389    6.2346    1.4868 H       1  UNL1        0.0315
     47 H          -1.3131    5.7417   -0.0519 H       1  UNL1        0.0315
     48 H          -1.4404    2.6029   -0.9084 H       1  UNL1        0.0311
     49 H          -2.1473    1.3249    0.1090 H       1  UNL1        0.0311
     50 H           0.9122    1.8585    0.0033 H       1  UNL1        0.0569
     51 H          -0.9258   -0.5567    0.0079 H       1  UNL1        0.0569
     52 H           1.4134   -1.2911   -0.9498 H       1  UNL1        0.0307
     53 H           2.1349   -0.0241    0.0711 H       1  UNL1        0.0307
     54 H           1.2735   -1.1657    2.0968 H       1  UNL1        0.0272
     55 H           0.5519   -2.4327    1.0758 H       1  UNL1        0.0272
     56 H           2.8010   -3.0154    0.2094 H       1  UNL1        0.0325
     57 H           3.5226   -1.7484    1.2303 H       1  UNL1        0.0325
     58 H           1.0477    4.5982   -0.4002 H       1  UNL1        0.2098
     59 H          -3.2565    6.9746    1.5321 H       1  UNL1        0.2098
     60 H          -3.5172    3.4551   -2.6365 H       1  UNL1        0.2106
     61 O           3.8414   -4.1948    2.4894 O.co2   1  UNL1       -0.5498
@<TRIPOS>UNITY_ATOM_ATTR
61 1
charge -1
@<TRIPOS>BOND
     1     1     2    1
     2     1    30    1
     3     1    31    1
     4     1    32    1
     5     2     3    1
     6     2    33    1
     7     2    34    1
     8     3     4    1
     9     3    35    1
    10     3    36    1
    11     4     5    1
    12     4    37    1
    13     4    38    1
    14     5     6    1
    15     5    39    1
    16     5    40    1
    17     6     7    1
    18     6     8    1
    19     6    29    1
    20     7    41    1
    21     7    42    1
    22     7    43    1
    23     8     9    2
    24     8    44    1
    25     9    10    1
    26     9    45    1
    27    10    11    1
    28    10    17    1
    29    10    12    1
    30    12    13    1
    31    12    14    1
    32    12    28    1
    33    14    15    1
    34    14    46    1
    35    14    47    1
    36    15    16    1
    37    15    17    1
    38    15    27    1
    39    17    18    1
    40    17    19    1
    41    19    20    1
    42    19    48    1
    43    19    49    1
    44    20    21    2
    45    20    50    1
    46    21    22    1
    47    21    51    1
    48    22    23    1
    49    22    52    1
    50    22    53    1
    51    23    24    1
    52    23    54    1
    53    23    55    1
    54    24    25    1
    55    24    56    1
    56    24    57    1
    57    25    26   ar
    58    25    61   ar
    59    27    58    1
    60    28    59    1
    61    29    60    1
