@<TRIPOS>MOLECULE
ZINC00895048
 14 13 0 0 0
SMALL
GASTEIGER

@<TRIPOS>ATOM
      1 H          -0.5730    1.3163   -3.2297 H       1  UNL1        0.2095
      2 O          -0.1537    1.0374   -2.4041 O.3     1  UNL1       -0.3924
      3 C          -0.7527    1.5927   -1.2315 C.3     1  UNL1        0.0723
      4 C          -0.0127    1.0858    0.0080 C.3     1  UNL1        0.1012
      5 C          -0.7288    1.5792    1.2668 C.3     1  UNL1        0.0723
      6 O          -0.1077    1.0115    2.4217 O.3     1  UNL1       -0.3924
      7 H          -0.5110    1.2815    3.2581 H       1  UNL1        0.2095
      8 O           1.3279    1.5804   -0.0021 O.3     1  UNL1       -0.3873
      9 H           1.3912    2.5454    0.0024 H       1  UNL1        0.2100
     10 H          -1.7985    1.2898   -1.1795 H       1  UNL1        0.0583
     11 H          -0.6910    2.6801   -1.2722 H       1  UNL1        0.0583
     12 H           0.0021   -0.0041    0.0020 H       1  UNL1        0.0639
     13 H          -0.6662    2.6662    1.3180 H       1  UNL1        0.0583
     14 H          -1.7755    1.2768    1.2315 H       1  UNL1        0.0583
@<TRIPOS>BOND
     1     1     2    1
     2     2     3    1
     3     3     4    1
     4     3    10    1
     5     3    11    1
     6     4     5    1
     7     4     8    1
     8     4    12    1
     9     5     6    1
    10     5    13    1
    11     5    14    1
    12     6     7    1
    13     8     9    1
