@<TRIPOS>MOLECULE
ZINC03831130
 67 71 0 0 0
SMALL
GASTEIGER

@<TRIPOS>ATOM
      1 C          10.1178   -3.7658    2.1707 C.3     1  UNL1       -0.0025
      2 C           8.6615   -3.5516    2.1545 C.1     1  UNL1       -0.1027
      3 C           7.5001   -3.3807    2.1417 C.1     1  UNL1       -0.0673
      4 C           6.0438   -3.1665    2.1255 C.3     1  UNL1        0.1320
      5 C           5.6286   -2.1864    3.2615 C.3     1  UNL1       -0.0118
      6 C           5.0307   -0.9358    2.5752 C.3     1  UNL1       -0.0455
      7 C           5.6474   -0.9763    1.1657 C.3     1  UNL1       -0.0254
      8 H           6.6864   -0.6538    1.2329 H       1  UNL1        0.0313
      9 C           5.6212   -2.4689    0.8031 C.3     1  UNL1        0.0122
     10 C           4.1853   -2.9235    0.5188 C.3     1  UNL1       -0.0332
     11 C           3.5985   -2.1210   -0.6394 C.3     1  UNL1        0.0066
     12 H           2.5681   -2.4297   -0.8157 H       1  UNL1        0.0394
     13 C           3.6353   -0.6513   -0.2663 C.2     1  UNL1       -0.0553
     14 C           2.5130    0.0545   -0.3762 C.2     1  UNL1       -0.0436
     15 C           1.2232   -0.5995   -0.8098 C.3     1  UNL1       -0.0204
     16 C           0.0823   -0.0563    0.0563 C.3     1  UNL1        0.0139
     17 C           0.1216    1.4478    0.0728 C.2     1  UNL1        0.1567
     18 O          -0.9215    2.0702    0.0830 O.2     1  UNL1       -0.2927
     19 C           1.3406    2.1472    0.0708 C.2     1  UNL1       -0.0158
     20 C           2.5096    1.4923   -0.1029 C.2     1  UNL1       -0.0409
     21 C           3.8380    2.1967    0.0069 C.3     1  UNL1       -0.0268
     22 C           4.7766    1.3146    0.8277 C.3     1  UNL1       -0.0422
     23 C           4.9289   -0.0698    0.2128 C.3     1  UNL1       -0.0150
     24 H           5.5741    0.0437   -0.6584 H       1  UNL1        0.0349
     25 C           4.4182   -2.3501   -1.8831 C.ar    1  UNL1       -0.0401
     26 C           4.8221   -1.2734   -2.6512 C.ar    1  UNL1       -0.0563
     27 C           5.5781   -1.4795   -3.7884 C.ar    1  UNL1       -0.0404
     28 C           5.9233   -2.7708   -4.1665 C.ar    1  UNL1        0.0292
     29 C           5.5112   -3.8504   -3.3957 C.ar    1  UNL1       -0.0404
     30 C           4.7601   -3.6369   -2.2566 C.ar    1  UNL1       -0.0563
     31 N           6.6826   -2.9832   -5.3194 N.pl3   1  UNL1       -0.3360
     32 C           6.9469   -4.3481   -5.7813 C.3     1  UNL1        0.0004
     33 C           7.2148   -1.8410   -6.0667 C.3     1  UNL1        0.0004
     34 C           6.5670   -2.7976   -0.3537 C.3     1  UNL1       -0.0557
     35 O           5.3615   -4.4145    2.2625 O.3     1  UNL1       -0.3760
     36 H          10.4027   -4.2552    3.1020 H       1  UNL1        0.0362
     37 H          10.4017   -4.3956    1.3275 H       1  UNL1        0.0362
     38 H          10.6272   -2.8052    2.0944 H       1  UNL1        0.0362
     39 H           6.5027   -1.9075    3.8499 H       1  UNL1        0.0303
     40 H           4.8811   -2.6540    3.9024 H       1  UNL1        0.0303
     41 H           5.3307   -0.0289    3.1001 H       1  UNL1        0.0269
     42 H           3.9443   -1.0060    2.5216 H       1  UNL1        0.0269
     43 H           3.5753   -2.7715    1.4093 H       1  UNL1        0.0281
     44 H           4.1861   -3.9825    0.2607 H       1  UNL1        0.0281
     45 H           1.2988   -1.6790   -0.6799 H       1  UNL1        0.0317
     46 H           1.0296   -0.3675   -1.8571 H       1  UNL1        0.0317
     47 H           0.1815   -0.3980    0.9909 H       1  UNL1        0.0348
     48 H          -0.8713   -0.3890   -0.3537 H       1  UNL1        0.0348
     49 H           1.3431    3.2183    0.2094 H       1  UNL1        0.0655
     50 H           3.7053    3.1569    0.5054 H       1  UNL1        0.0313
     51 H           4.2554    2.3524   -0.9880 H       1  UNL1        0.0313
     52 H           4.3774    1.2134    1.8370 H       1  UNL1        0.0274
     53 H           5.7560    1.7901    0.8803 H       1  UNL1        0.0274
     54 H           4.5493   -0.2700   -2.3592 H       1  UNL1        0.0621
     55 H           5.8970   -0.6379   -4.3854 H       1  UNL1        0.0636
     56 H           5.7775   -4.8557   -3.6871 H       1  UNL1        0.0636
     57 H           4.4390   -4.4759   -1.6571 H       1  UNL1        0.0621
     58 H           6.1568   -4.6599   -6.4644 H       1  UNL1        0.0428
     59 H           7.9063   -4.3775   -6.2978 H       1  UNL1        0.0428
     60 H           6.9743   -5.0224   -4.9254 H       1  UNL1        0.0428
     61 H           6.8433   -0.9149   -5.6282 H       1  UNL1        0.0428
     62 H           8.3038   -1.8530   -6.0219 H       1  UNL1        0.0428
     63 H           6.8933   -1.9054   -7.1063 H       1  UNL1        0.0428
     64 H           6.3450   -2.1481   -1.2004 H       1  UNL1        0.0236
     65 H           7.5978   -2.6408   -0.0361 H       1  UNL1        0.0236
     66 H           6.4321   -3.8382   -0.6489 H       1  UNL1        0.0236
     67 H           5.5840   -4.8979    3.0699 H       1  UNL1        0.2114
@<TRIPOS>BOND
     1     1     2    1
     2     1    36    1
     3     1    37    1
     4     1    38    1
     5     2     3    3
     6     3     4    1
     7     4     9    1
     8     4     5    1
     9     4    35    1
    10     5     6    1
    11     5    39    1
    12     5    40    1
    13     6     7    1
    14     6    41    1
    15     6    42    1
    16     7     8    1
    17     7    23    1
    18     7     9    1
    19     9    10    1
    20     9    34    1
    21    10    11    1
    22    10    43    1
    23    10    44    1
    24    11    12    1
    25    11    13    1
    26    11    25    1
    27    13    23    1
    28    13    14    2
    29    14    20    1
    30    14    15    1
    31    15    16    1
    32    15    45    1
    33    15    46    1
    34    16    17    1
    35    16    47    1
    36    16    48    1
    37    17    18    2
    38    17    19    1
    39    19    20    2
    40    19    49    1
    41    20    21    1
    42    21    22    1
    43    21    50    1
    44    21    51    1
    45    22    23    1
    46    22    52    1
    47    22    53    1
    48    23    24    1
    49    25    30   ar
    50    25    26   ar
    51    26    27   ar
    52    26    54    1
    53    27    28   ar
    54    27    55    1
    55    28    29   ar
    56    28    31    1
    57    29    30   ar
    58    29    56    1
    59    30    57    1
    60    31    32    1
    61    31    33    1
    62    32    58    1
    63    32    59    1
    64    32    60    1
    65    33    61    1
    66    33    62    1
    67    33    63    1
    68    34    64    1
    69    34    65    1
    70    34    66    1
    71    35    67    1
