@<TRIPOS>MOLECULE
ZINC00001890
 21 21 0 0 0
SMALL
GASTEIGER

@<TRIPOS>ATOM
      1 C           2.3164   -4.3928   -0.0426 C.3     1  UNL1       -0.0582
      2 C           2.5695   -2.8839   -0.0374 C.3     1  UNL1        0.0076
      3 C           1.2514   -2.1535   -0.0209 C.2     1  UNL1        0.1629
      4 O           0.2119   -2.7784   -0.0140 O.2     1  UNL1       -0.2921
      5 C           1.2256   -0.6852   -0.0133 C.ar    1  UNL1        0.0176
      6 C           0.0021   -0.0041    0.0020 C.ar    1  UNL1       -0.0478
      7 C          -0.0165    1.3670    0.0096 C.ar    1  UNL1       -0.0195
      8 C           1.1769    2.0811    0.0020 C.ar    1  UNL1        0.1169
      9 C           2.3947    1.4095   -0.0132 C.ar    1  UNL1       -0.0195
     10 C           2.4244    0.0387   -0.0208 C.ar    1  UNL1       -0.0478
     11 O           1.1530    3.4375    0.0095 O.3     1  UNL1       -0.5068
     12 H           1.7583   -4.6706    0.8515 H       1  UNL1        0.0234
     13 H           1.7410   -4.6617   -0.9284 H       1  UNL1        0.0234
     14 H           3.2698   -4.9210   -0.0545 H       1  UNL1        0.0234
     15 H           3.0816   -2.6290   -0.8576 H       1  UNL1        0.0342
     16 H           3.1450   -2.6150    0.8484 H       1  UNL1        0.0342
     17 H          -0.9252   -0.5577    0.0082 H       1  UNL1        0.0626
     18 H          -0.9596    1.8932    0.0169 H       1  UNL1        0.0654
     19 H           3.3186    1.9687   -0.0194 H       1  UNL1        0.0654
     20 H           3.3705   -0.4819   -0.0323 H       1  UNL1        0.0626
     21 H           1.1545    3.8260    0.8950 H       1  UNL1        0.2921
@<TRIPOS>BOND
     1     1     2    1
     2     1    12    1
     3     1    13    1
     4     1    14    1
     5     2     3    1
     6     2    15    1
     7     2    16    1
     8     3     4    2
     9     3     5    1
    10     5    10   ar
    11     5     6   ar
    12     6     7   ar
    13     6    17    1
    14     7     8   ar
    15     7    18    1
    16     8     9   ar
    17     8    11    1
    18     9    10   ar
    19     9    19    1
    20    10    20    1
    21    11    21    1
