@<TRIPOS>MOLECULE
ZINC03831272
 62 65 0 0 0
SMALL
GASTEIGER

@<TRIPOS>ATOM
      1 C          -0.1507    1.3990   -0.1499 C.3     1  UNL1       -0.0594
      2 C          -0.8193    1.7615    1.1766 C.3     1  UNL1       -0.0071
      3 H          -0.9731    2.8388    1.2366 H       1  UNL1        0.0330
      4 C           0.0601    1.2893    2.3608 C.3     1  UNL1       -0.0437
      5 C          -0.9634    0.8201    3.4055 C.3     1  UNL1       -0.0289
      6 H          -1.4315    1.7026    3.8568 H       1  UNL1        0.0310
      7 C          -0.4031   -0.0420    4.4986 C.3     1  UNL1       -0.0284
      8 H          -1.2593   -0.2614    5.1823 H       1  UNL1        0.0308
      9 C           0.6468    0.6441    5.3598 C.3     1  UNL1       -0.0143
     10 C           1.9574    0.8575    4.6276 C.3     1  UNL1        0.1235
     11 H           2.7841    0.7364    5.3469 H       1  UNL1        0.0699
     12 C           2.1930   -0.1100    3.5029 C.2     1  UNL1       -0.0226
     13 C           3.2175    0.1796    2.6786 C.2     1  UNL1       -0.0122
     14 C           3.4956   -0.7046    1.5278 C.2     1  UNL1        0.1788
     15 O           4.5852   -0.7025    0.9652 O.2     1  UNL1       -0.2879
     16 C           2.3924   -1.5683    1.0494 C.2     1  UNL1       -0.0180
     17 C           1.3612   -1.8146    1.8756 C.2     1  UNL1       -0.0701
     18 C           1.3947   -1.3508    3.2927 C.3     1  UNL1        0.0158
     19 C           0.0894   -1.4021    4.0272 C.3     1  UNL1        0.0009
     20 H           0.2798   -1.9921    4.9430 H       1  UNL1        0.0340
     21 C          -1.0474   -2.0998    3.2945 C.3     1  UNL1        0.0600
     22 H          -1.8939   -2.2056    3.9960 H       1  UNL1        0.0596
     23 C          -1.5173   -1.2656    2.1066 C.3     1  UNL1       -0.0178
     24 C          -2.0340    0.1000    2.5532 C.3     1  UNL1        0.0094
     25 C          -2.1640    1.0255    1.3180 C.3     1  UNL1        0.1351
     26 C          -2.4748    0.2563    0.0640 C.2     1  UNL1        0.2024
     27 O          -1.7590   -0.6539   -0.2790 O.2     1  UNL1       -0.2907
     28 C          -3.6794    0.6211   -0.7648 C.3     1  UNL1        0.1530
     29 O          -3.7611   -0.2618   -1.9146 O.3     1  UNL1       -0.4570
     30 C          -4.7856   -0.0681   -2.7600 C.2     1  UNL1        0.3043
     31 O          -5.5875    0.8101   -2.5462 O.2     1  UNL1       -0.2512
     32 C          -4.9357   -0.9460   -3.9757 C.3     1  UNL1        0.0332
     33 O          -3.2041    1.9874    1.5528 O.3     1  UNL1       -0.3801
     34 C          -3.3657   -0.0095    3.3055 C.3     1  UNL1       -0.0562
     35 O          -0.6786   -3.4136    2.8836 O.3     1  UNL1       -0.3914
     36 C           2.2370   -2.4281    4.0022 C.3     1  UNL1       -0.0519
     37 F           2.0254    2.1675    4.1370 F       1  UNL1       -0.2407
     38 H           0.0019    0.3208   -0.1972 H       1  UNL1        0.0233
     39 H           0.8117    1.9057   -0.2221 H       1  UNL1        0.0233
     40 H          -0.7891    1.7122   -0.9761 H       1  UNL1        0.0233
     41 H           0.7030    0.4741    2.0382 H       1  UNL1        0.0272
     42 H           0.6473    2.1255    2.7393 H       1  UNL1        0.0272
     43 H           0.2594    1.6150    5.7046 H       1  UNL1        0.0299
     44 H           0.8314    0.0387    6.2609 H       1  UNL1        0.0299
     45 H           3.8350    1.0642    2.8641 H       1  UNL1        0.0656
     46 H           2.4277   -2.0327    0.0630 H       1  UNL1        0.0653
     47 H           0.5323   -2.4071    1.4900 H       1  UNL1        0.0582
     48 H          -2.3262   -1.8182    1.6167 H       1  UNL1        0.0297
     49 H          -0.6946   -1.1392    1.4080 H       1  UNL1        0.0297
     50 H          -4.5065    0.5248   -0.2111 H       1  UNL1        0.0779
     51 H          -3.5877    1.6527   -1.1046 H       1  UNL1        0.0779
     52 H          -5.5453   -1.8138   -3.7241 H       1  UNL1        0.0342
     53 H          -5.4183   -0.3819   -4.7738 H       1  UNL1        0.0342
     54 H          -3.9520   -1.2771   -4.3084 H       1  UNL1        0.0342
     55 H          -3.3194    2.6251    0.8351 H       1  UNL1        0.2108
     56 H          -3.7297    0.9892    3.5471 H       1  UNL1        0.0236
     57 H          -4.0963   -0.5206    2.6784 H       1  UNL1        0.0236
     58 H          -3.2178   -0.5748    4.2256 H       1  UNL1        0.0236
     59 H          -1.3963   -3.9121    2.4694 H       1  UNL1        0.2098
     60 H           1.7427   -3.3952    3.9096 H       1  UNL1        0.0241
     61 H           3.2239   -2.4789    3.5424 H       1  UNL1        0.0241
     62 H           2.3402   -2.1724    5.0568 H       1  UNL1        0.0241
@<TRIPOS>BOND
     1     1     2    1
     2     1    38    1
     3     1    39    1
     4     1    40    1
     5     2     3    1
     6     2    25    1
     7     2     4    1
     8     4     5    1
     9     4    41    1
    10     4    42    1
    11     5     6    1
    12     5    24    1
    13     5     7    1
    14     7     8    1
    15     7    19    1
    16     7     9    1
    17     9    10    1
    18     9    43    1
    19     9    44    1
    20    10    11    1
    21    10    12    1
    22    10    37    1
    23    12    18    1
    24    12    13    2
    25    13    14    1
    26    13    45    1
    27    14    15    2
    28    14    16    1
    29    16    17    2
    30    16    46    1
    31    17    18    1
    32    17    47    1
    33    18    19    1
    34    18    36    1
    35    19    20    1
    36    19    21    1
    37    21    22    1
    38    21    23    1
    39    21    35    1
    40    23    24    1
    41    23    48    1
    42    23    49    1
    43    24    25    1
    44    24    34    1
    45    25    26    1
    46    25    33    1
    47    26    27    2
    48    26    28    1
    49    28    29    1
    50    28    50    1
    51    28    51    1
    52    29    30    1
    53    30    31    2
    54    30    32    1
    55    32    52    1
    56    32    53    1
    57    32    54    1
    58    33    55    1
    59    34    56    1
    60    34    57    1
    61    34    58    1
    62    35    59    1
    63    36    60    1
    64    36    61    1
    65    36    62    1
