@<TRIPOS>MOLECULE
ZINC11592639
 42 44 0 0 0
SMALL
GASTEIGER

@<TRIPOS>ATOM
      1 C          -3.0942    5.9718    1.0259 C.3     1  UNL1       -0.0409
      2 C          -2.2659    4.7143    1.0870 C.2     1  UNL1       -0.0396
      3 CA         -2.2953    3.9533    0.0056 C.2     1  UNL1        0.0596
      4 N          -1.5183    2.7806   -0.0679 N.am    1  UNL1       -0.2534
      5 C          -0.9355    2.0370    1.0980 C.3     1  UNL1        0.1041
      6 H          -1.5953    1.3428    1.6184 H       1  UNL1        0.0644
      7 CA         -0.0484    1.4347    0.0207 C.3     1  UNL1        0.1285
      8 HA          0.9571    1.8552    0.0055 H       1  UNL1        0.0622
      9 C          -0.9611    2.0288   -1.0291 C.2     1  UNL1        0.2438
     10 O          -1.1204    1.8867   -2.2231 O.2     1  UNL1       -0.2731
     11 N          -0.0462   -0.0303    0.0244 N.am    1  UNL1       -0.2968
     12 C           1.0027   -0.7038   -0.4881 C.2     1  UNL1        0.2665
     13 O           1.9447   -0.0971   -0.9524 O.2     1  UNL1       -0.2692
     14 CA          1.0050   -2.2108   -0.4843 C.3     1  UNL1        0.0789
     15 HA          0.0078   -2.5763   -0.7296 H       1  UNL1        0.1002
     16 C           1.4007   -2.7091    0.8818 C.ar    1  UNL1        0.0093
     17 C           2.7348   -2.7453    1.2434 C.ar    1  UNL1       -0.0493
     18 C           3.0997   -3.1964    2.4972 C.ar    1  UNL1       -0.0197
     19 C           2.1272   -3.6238    3.3895 C.ar    1  UNL1        0.1169
     20 C           0.7898   -3.5918    3.0221 C.ar    1  UNL1       -0.0197
     21 C           0.4296   -3.1346    1.7692 C.ar    1  UNL1       -0.0493
     22 O           2.4840   -4.0728    4.6215 O.3     1  UNL1       -0.5068
     23 S          -0.1553    3.3041    2.1464 S.3     1  UNL1       -0.1312
     24 C          -1.5184    4.4903    2.3613 C.3     1  UNL1        0.0184
     25 C          -3.1487    4.3363   -1.1336 C.2     1  UNL1        0.0859
     26 O          -3.1001    3.7026   -2.1692 O.co2   1  UNL1       -0.5433
     27 H          -4.1495    5.7086    0.9544 H       1  UNL1        0.0275
     28 H          -2.9269    6.5612    1.9274 H       1  UNL1        0.0275
     29 H          -2.8051    6.5550    0.1516 H       1  UNL1        0.0275
     30 H          -0.7996   -0.5155    0.3957 H       1  UNL1        0.1497
     31 H           3.4918   -2.4166    0.5468 H       1  UNL1        0.0623
     32 H           4.1415   -3.2204    2.7808 H       1  UNL1        0.0654
     33 H           0.0308   -3.9237    3.7151 H       1  UNL1        0.0654
     34 H          -0.6114   -3.1091    1.4829 H       1  UNL1        0.0623
     35 H           2.6552   -5.0237    4.6593 H       1  UNL1        0.2921
     36 H1          1.6865   -2.4348   -2.4140 H       1  UNL1        0.2005
     37 H2          2.8981   -2.3760   -1.2763 H       1  UNL1        0.2005
     38 H          -1.1110    5.4408    2.7057 H       1  UNL1        0.0423
     39 H          -2.2068    4.1057    3.1138 H       1  UNL1        0.0423
     40 N           1.9631   -2.7264   -1.4780 N.4     1  UNL1        0.2307
     41 H3          1.9736   -3.7523   -1.4361 H       1  UNL1        0.2005
     42 OXT        -3.9829    5.3894   -1.0266 O.co2   1  UNL1       -0.5433
@<TRIPOS>UNITY_ATOM_ATTR
40 1
charge 1
42 1
charge -1
@<TRIPOS>BOND
     1     1     2    1
     2     1    27    1
     3     1    28    1
     4     1    29    1
     5     2    24    1
     6     2     3    2
     7     3     4    1
     8     3    25    1
     9     4     9   am
    10     4     5    1
    11     5     6    1
    12     5     7    1
    13     5    23    1
    14     7     8    1
    15     7     9    1
    16     7    11    1
    17     9    10    2
    18    11    12   am
    19    11    30    1
    20    12    13    2
    21    12    14    1
    22    14    15    1
    23    14    16    1
    24    14    40    1
    25    16    21   ar
    26    16    17   ar
    27    17    18   ar
    28    17    31    1
    29    18    19   ar
    30    18    32    1
    31    19    20   ar
    32    19    22    1
    33    20    21   ar
    34    20    33    1
    35    21    34    1
    36    22    35    1
    37    23    24    1
    38    24    38    1
    39    24    39    1
    40    25    26   ar
    41    25    42   ar
    42    36    40    1
    43    37    40    1
    44    40    41    1
