@<TRIPOS>MOLECULE
ZINC14951845
 45 49 0 0 0
SMALL
GASTEIGER

@<TRIPOS>ATOM
      1 C           4.0517   -0.3148   -4.3708 C.2     1  UNL1       -0.0977
      2 C           3.8797   -0.9138   -3.2185 C.2     1  UNL1       -0.0465
      3 C           3.7147   -0.0980   -1.9623 C.3     1  UNL1       -0.0130
      4 C           1.2989   -0.1193   -2.0969 C.3     1  UNL1       -0.0304
      5 C           0.0148   -0.5867   -1.3945 C.3     1  UNL1        0.0015
      6 C           0.0021   -0.0041    0.0020 C.3     1  UNL1        0.0553
      7 C          -0.0180    1.4787    0.0102 C.ar    1  UNL1        0.0120
      8 C           1.1097    2.2670    0.0036 C.ar    1  UNL1       -0.0345
      9 C           0.8325    3.6203    0.0161 C.ar    1  UNL1       -0.0544
     10 C          -0.4851    4.0537    0.0834 C.ar    1  UNL1       -0.0162
     11 C          -1.5994    3.2158    0.1623 C.ar    1  UNL1        0.1588
     12 C          -1.3524    1.8436    0.1446 C.ar    1  UNL1        0.1663
     13 O          -2.1269    0.7187    0.2679 O.3     1  UNL1       -0.4811
     14 C          -1.2870   -0.3147    0.7899 C.3     1  UNL1        0.1402
     15 H          -1.1207   -0.1560    1.8554 H       1  UNL1        0.0772
     16 C          -1.5048   -1.7819    0.5009 C.3     1  UNL1        0.1110
     17 H          -1.8708   -1.9039   -0.5185 H       1  UNL1        0.0675
     18 C          -0.1828   -2.5048    0.6617 C.2     1  UNL1       -0.0558
     19 C           1.0120   -1.9826    0.7965 C.2     1  UNL1       -0.0761
     20 C           1.2088   -0.4904    0.8095 C.3     1  UNL1        0.0339
     21 H           1.1733   -0.1018    1.8272 H       1  UNL1        0.0408
     22 C           2.4126    0.0668    0.0701 C.3     1  UNL1       -0.0092
     23 H           3.3092   -0.2584    0.5979 H       1  UNL1        0.0861
     24 C           2.4231    1.5963    0.0246 C.3     1  UNL1        0.0165
     25 O          -2.4591   -2.3159    1.4208 O.3     1  UNL1       -0.3841
     26 O          -2.8620    3.7131    0.2511 O.3     1  UNL1       -0.5033
     27 H           4.1699   -0.8995   -5.2711 H       1  UNL1        0.0534
     28 H           4.0754    0.7638   -4.4204 H       1  UNL1        0.0534
     29 H           3.8560   -1.9924   -3.1689 H       1  UNL1        0.0619
     30 H           3.6768    0.9607   -2.2190 H       1  UNL1        0.0861
     31 H           4.5586   -0.2806   -1.2970 H       1  UNL1        0.0861
     32 H           1.3715   -0.5963   -3.0743 H       1  UNL1        0.0815
     33 H           1.2690    0.9628   -2.2241 H       1  UNL1        0.0815
     34 H           0.0012   -1.6752   -1.3391 H       1  UNL1        0.0327
     35 H          -0.8560   -0.2350   -1.9478 H       1  UNL1        0.0327
     36 H           1.6377    4.3387   -0.0268 H       1  UNL1        0.0622
     37 H          -0.6613    5.1192    0.0745 H       1  UNL1        0.0655
     38 H          -0.2309   -3.5837    0.6660 H       1  UNL1        0.0596
     39 H           1.8681   -2.6328    0.8998 H       1  UNL1        0.0575
     40 H           2.9703    1.9601    0.8943 H       1  UNL1        0.0368
     41 H           2.9648    1.9078   -0.8685 H       1  UNL1        0.0368
     42 H          -2.6464   -3.2558    1.2917 H       1  UNL1        0.2104
     43 H          -3.2893    3.8565   -0.6045 H       1  UNL1        0.2923
     44 N           2.4746   -0.5241   -1.2891 N.4     1  UNL1        0.2409
     45 H           2.4777   -1.5472   -1.2031 H       1  UNL1        0.2040
@<TRIPOS>UNITY_ATOM_ATTR
44 1
charge 1
@<TRIPOS>BOND
     1     1     2    2
     2     1    27    1
     3     1    28    1
     4     2     3    1
     5     2    29    1
     6     3    30    1
     7     3    31    1
     8     3    44    1
     9     4     5    1
    10     4    32    1
    11     4    33    1
    12     4    44    1
    13     5     6    1
    14     5    34    1
    15     5    35    1
    16     6    14    1
    17     6    20    1
    18     6     7    1
    19     7    12   ar
    20     7     8   ar
    21     8    24    1
    22     8     9   ar
    23     9    10   ar
    24     9    36    1
    25    10    11   ar
    26    10    37    1
    27    11    12   ar
    28    11    26    1
    29    12    13    1
    30    13    14    1
    31    14    15    1
    32    14    16    1
    33    16    17    1
    34    16    18    1
    35    16    25    1
    36    18    19    2
    37    18    38    1
    38    19    20    1
    39    19    39    1
    40    20    21    1
    41    20    22    1
    42    22    23    1
    43    22    24    1
    44    22    44    1
    45    24    40    1
    46    24    41    1
    47    25    42    1
    48    26    43    1
    49    44    45    1
