@<TRIPOS>MOLECULE
ZINC11616741
 57 60 0 0 0
SMALL
GASTEIGER

@<TRIPOS>ATOM
      1 C           1.6489   -0.7032    3.8993 C.3     1  UNL1       -0.0312
      2 C           2.9442    0.0704    3.6453 C.3     1  UNL1        0.0972
      3 C           4.1051   -0.6998    4.2169 C.ar    1  UNL1        0.0168
      4 C           4.5554   -0.4243    5.4920 C.ar    1  UNL1        0.0478
      5 C           5.6165   -1.1377    6.0271 C.ar    1  UNL1       -0.0395
      6 C           6.2334   -2.1313    5.2926 C.ar    1  UNL1       -0.0181
      7 C           5.7961   -2.4183    4.0080 C.ar    1  UNL1        0.1281
      8 C           4.7279   -1.6953    3.4628 C.ar    1  UNL1        0.0707
      9 C           4.2611   -1.9765    2.0903 C.2     1  UNL1        0.1967
     10 O           4.6367   -2.9729    1.4992 O.2     1  UNL1       -0.2867
     11 C           3.3616   -1.0592    1.4698 C.2     1  UNL1        0.0466
     12 C           2.7857   -1.4038    0.3156 C.2     1  UNL1        0.1409
     13 C           1.8526   -0.5137   -0.4603 C.3     1  UNL1        0.1935
     14 C           1.9974    0.9288    0.0254 C.3     1  UNL1        0.0531
     15 H           2.9947    1.2777   -0.2424 H       1  UNL1        0.0397
     16 C           1.8843    0.9444    1.5591 C.3     1  UNL1       -0.0311
     17 C           3.1287    0.2682    2.1420 C.3     1  UNL1        0.0244
     18 H           3.9951    0.9096    1.9803 H       1  UNL1        0.0382
     19 C           0.9991    1.8517   -0.6214 C.3     1  UNL1        0.0441
     20 H           1.0275    2.8181   -0.1180 H       1  UNL1        0.0939
     21 C          -0.3984    1.3124   -0.5604 C.2     1  UNL1        0.1579
     22 C          -0.6616   -0.0199   -0.3606 C.2     1  UNL1        0.1248
     23 C           0.4349   -0.9677   -0.1678 C.2     1  UNL1        0.2108
     24 O           0.2149   -2.0971    0.2187 O.2     1  UNL1       -0.2882
     25 C          -2.0537   -0.4965   -0.3408 C.2     1  UNL1        0.2485
     26 O          -2.5882   -0.7693    0.7173 O.2     1  UNL1       -0.2702
     27 N          -2.7366   -0.6307   -1.4950 N.am    1  UNL1       -0.3252
     28 O          -1.4268    2.1601   -0.7118 O.2     1  UNL1       -0.5050
     29 C           0.3627    2.8230   -2.7460 C.3     1  UNL1       -0.0427
     30 C           2.7014    2.6639   -2.1396 C.3     1  UNL1       -0.0427
     31 O           2.1272   -0.6002   -1.8600 O.3     1  UNL1       -0.3731
     32 O           3.0565   -2.6254   -0.1858 O.2     1  UNL1       -0.5073
     33 O           6.3998   -3.3942    3.2838 O.3     1  UNL1       -0.5060
     34 CL          3.7901    0.8204    6.4293 Cl      1  UNL1       -0.0831
     35 O           2.8626    1.3462    4.2839 O.3     1  UNL1       -0.3836
     36 H           1.7034   -1.6745    3.4078 H       1  UNL1        0.0261
     37 H           1.5150   -0.8456    4.9716 H       1  UNL1        0.0261
     38 H           0.8053   -0.1405    3.4994 H       1  UNL1        0.0261
     39 H           5.9635   -0.9147    7.0252 H       1  UNL1        0.0633
     40 H           7.0570   -2.6851    5.7186 H       1  UNL1        0.0655
     41 H           0.9915    0.4000    1.8667 H       1  UNL1        0.0278
     42 H           1.8265    1.9745    1.9108 H       1  UNL1        0.0278
     43 H          -2.2892   -0.4838   -2.3431 H       1  UNL1        0.1453
     44 H          -3.6754   -0.8742   -1.4776 H       1  UNL1        0.1453
     45 H          -2.2874    1.6550   -0.6470 H       1  UNL1        0.2919
     46 H           0.2625    3.8022   -2.2779 H       1  UNL1        0.0778
     47 H           0.6672    2.9465   -3.7853 H       1  UNL1        0.0778
     48 H          -0.5940    2.3021   -2.7071 H       1  UNL1        0.0778
     49 H           3.4590    1.9807   -1.7556 H       1  UNL1        0.0778
     50 H           2.9110    2.8880   -3.1856 H       1  UNL1        0.0778
     51 H           2.7173    3.5869   -1.5601 H       1  UNL1        0.0778
     52 H           2.0428   -1.4924   -2.2231 H       1  UNL1        0.2113
     53 H           2.5625   -2.7495   -1.0464 H       1  UNL1        0.2918
     54 H           7.1425   -3.0840    2.7478 H       1  UNL1        0.2922
     55 H           2.0807    1.8595    4.0384 H       1  UNL1        0.2106
     56 N           1.3781    2.0128   -2.0409 N.4     1  UNL1        0.2388
     57 H           1.4289    1.0860   -2.4798 H       1  UNL1        0.2035
@<TRIPOS>UNITY_ATOM_ATTR
56 1
charge 1
@<TRIPOS>BOND
     1     1     2    1
     2     1    36    1
     3     1    37    1
     4     1    38    1
     5     2    17    1
     6     2     3    1
     7     2    35    1
     8     3     8   ar
     9     3     4   ar
    10     4     5   ar
    11     4    34    1
    12     5     6   ar
    13     5    39    1
    14     6     7   ar
    15     6    40    1
    16     7     8   ar
    17     7    33    1
    18     8     9    1
    19     9    10    2
    20     9    11    1
    21    11    17    1
    22    11    12    2
    23    12    13    1
    24    12    32    1
    25    13    23    1
    26    13    14    1
    27    13    31    1
    28    14    15    1
    29    14    16    1
    30    14    19    1
    31    16    17    1
    32    16    41    1
    33    16    42    1
    34    17    18    1
    35    19    20    1
    36    19    21    1
    37    19    56    1
    38    21    22    2
    39    21    28    1
    40    22    23    1
    41    22    25    1
    42    23    24    2
    43    25    26    2
    44    25    27   am
    45    27    43    1
    46    27    44    1
    47    28    45    1
    48    29    46    1
    49    29    47    1
    50    29    48    1
    51    29    56    1
    52    30    49    1
    53    30    50    1
    54    30    51    1
    55    30    56    1
    56    31    52    1
    57    32    53    1
    58    33    54    1
    59    35    55    1
    60    56    57    1
