@<TRIPOS>MOLECULE
ZINC03831070
 45 47 0 0 0
SMALL
GASTEIGER

@<TRIPOS>ATOM
      1 C           3.4928    5.8669    0.8080 C.3     1  UNL1       -0.0486
      2 C           4.1415    4.5646    0.3346 C.3     1  UNL1        0.0366
      3 CA          4.0477    3.4535    1.4165 C.3     1  UNL1        0.0807
      4 HA          3.1173    3.5752    1.9712 H       1  UNL1        0.0576
      5 N           4.0790    2.1131    0.8238 N.am    1  UNL1       -0.2761
      6 C           3.5833    2.0133   -0.5702 C.3     1  UNL1        0.1003
      7 H           4.2316    1.5063   -1.2848 H       1  UNL1        0.0640
      8 S           3.1393    3.7473   -0.9870 S.3     1  UNL1       -0.1275
      9 CA          2.4220    1.1866   -0.0147 C.3     1  UNL1        0.1279
     10 HA          2.3458    0.1897   -0.4488 H       1  UNL1        0.0622
     11 C           3.1563    1.2206    1.3093 C.2     1  UNL1        0.2401
     12 O           2.9922    0.6727    2.3788 O.2     1  UNL1       -0.2734
     13 N           1.1435    1.9017    0.0014 N.am    1  UNL1       -0.2975
     14 C          -0.0144    1.2120    0.0087 C.2     1  UNL1        0.2518
     15 O           0.0021   -0.0041    0.0020 O.2     1  UNL1       -0.2699
     16 C          -1.2994    1.9308    0.0187 C.ar    1  UNL1        0.1197
     17 C          -1.9187    2.2872   -1.1882 C.ar    1  UNL1        0.1357
     18 C          -3.1303    2.9588   -1.1672 C.ar    1  UNL1       -0.0190
     19 C          -3.7235    3.2872    0.0376 C.ar    1  UNL1       -0.0548
     20 C          -3.1191    2.9453    1.2330 C.ar    1  UNL1       -0.0190
     21 C          -1.9100    2.2690    1.2352 C.ar    1  UNL1        0.1357
     22 O          -1.3190    1.9347    2.4096 O.3     1  UNL1       -0.4942
     23 C          -1.9991    2.3118    3.6085 C.3     1  UNL1        0.0788
     24 O          -1.3357    1.9715   -2.3717 O.3     1  UNL1       -0.4942
     25 C          -2.0243    2.3665   -3.5599 C.3     1  UNL1        0.0788
     26 C           5.2065    3.5966    2.3694 C.2     1  UNL1        0.0635
     27 O           6.1465    2.8411    2.2951 O.co2   1  UNL1       -0.5478
     28 C           5.5864    4.7928   -0.1136 C.3     1  UNL1       -0.0486
     29 H           3.9984    6.2186    1.7074 H       1  UNL1        0.0244
     30 H           3.5777    6.6206    0.0252 H       1  UNL1        0.0244
     31 H           2.4403    5.6893    1.0288 H       1  UNL1        0.0244
     32 H           1.1303    2.8716    0.0067 H       1  UNL1        0.1499
     33 H          -3.6110    3.2306   -2.0954 H       1  UNL1        0.0654
     34 H          -4.6660    3.8144    0.0449 H       1  UNL1        0.0620
     35 H          -3.5911    3.2068    2.1686 H       1  UNL1        0.0654
     36 H          -2.9825    1.8423    3.6314 H       1  UNL1        0.0660
     37 H          -1.4204    1.9853    4.4726 H       1  UNL1        0.0660
     38 H          -2.1131    3.3955    3.6361 H       1  UNL1        0.0660
     39 H          -1.4514    2.0538   -4.4329 H       1  UNL1        0.0660
     40 H          -3.0076    1.8967   -3.5832 H       1  UNL1        0.0660
     41 H          -2.1392    3.4504   -3.5699 H       1  UNL1        0.0660
     42 H           5.9870    3.8696   -0.5325 H       1  UNL1        0.0244
     43 H           5.6126    5.5766   -0.8706 H       1  UNL1        0.0244
     44 H           6.1892    5.0946    0.7430 H       1  UNL1        0.0244
     45 OXT         5.1943    4.5632    3.3006 O.co2   1  UNL1       -0.5478
@<TRIPOS>UNITY_ATOM_ATTR
45 1
charge -1
@<TRIPOS>BOND
     1     1     2    1
     2     1    29    1
     3     1    30    1
     4     1    31    1
     5     2     8    1
     6     2     3    1
     7     2    28    1
     8     3     4    1
     9     3     5    1
    10     3    26    1
    11     5    11   am
    12     5     6    1
    13     6     7    1
    14     6     8    1
    15     6     9    1
    16     9    10    1
    17     9    11    1
    18     9    13    1
    19    11    12    2
    20    13    14   am
    21    13    32    1
    22    14    15    2
    23    14    16    1
    24    16    21   ar
    25    16    17   ar
    26    17    18   ar
    27    17    24    1
    28    18    19   ar
    29    18    33    1
    30    19    20   ar
    31    19    34    1
    32    20    21   ar
    33    20    35    1
    34    21    22    1
    35    22    23    1
    36    23    36    1
    37    23    37    1
    38    23    38    1
    39    24    25    1
    40    25    39    1
    41    25    40    1
    42    25    41    1
    43    26    27   ar
    44    26    45   ar
    45    28    42    1
    46    28    43    1
    47    28    44    1
