@<TRIPOS>MOLECULE
ZINC08101079
 118 125 0 0 0
SMALL
GASTEIGER

@<TRIPOS>ATOM
      1 C          -6.3690   -0.0737   -0.1474 C.3     1  UNL1       -0.0361
      2 C          -5.1321   -0.5004   -0.9403 C.3     1  UNL1        0.0871
      3 H          -5.2675   -1.5187   -1.3049 H       1  UNL1        0.0621
      4 C          -4.9353    0.4453   -2.1280 C.3     1  UNL1        0.1070
      5 H          -4.0782    0.1178   -2.7163 H       1  UNL1        0.0645
      6 C          -4.6859    1.8635   -1.6055 C.3     1  UNL1        0.0881
      7 H          -5.5628    2.2102   -1.0589 H       1  UNL1        0.0621
      8 C          -3.4732    1.8453   -0.6698 C.3     1  UNL1        0.0270
      9 C          -3.7263    0.8453    0.4614 C.3     1  UNL1        0.1626
     10 H          -4.5891    1.1670    1.0448 H       1  UNL1        0.0910
     11 O          -3.9816   -0.4463   -0.0943 O.3     1  UNL1       -0.3456
     12 O          -2.5763    0.7814    1.3072 O.3     1  UNL1       -0.3429
     13 C          -2.7846    0.0505    2.5173 C.3     1  UNL1        0.1134
     14 H          -3.7441   -0.4647    2.4711 H       1  UNL1        0.0649
     15 C          -2.7774    1.0157    3.7056 C.3     1  UNL1        0.0875
     16 H          -2.9768    0.4632    4.6238 H       1  UNL1        0.0621
     17 O          -1.4986    1.6469    3.7971 O.3     1  UNL1       -0.3456
     18 C          -0.4136    0.7417    4.0111 C.3     1  UNL1        0.1626
     19 H          -0.5814    0.1864    4.9339 H       1  UNL1        0.0910
     20 C          -0.3269   -0.2355    2.8358 C.3     1  UNL1        0.0270
     21 C          -1.6610   -0.9752    2.6958 C.3     1  UNL1        0.0884
     22 H          -1.8460   -1.5664    3.5926 H       1  UNL1        0.0622
     23 O          -1.6125   -1.8368    1.5568 O.3     1  UNL1       -0.3890
     24 O           0.8083    1.4757    4.1117 O.3     1  UNL1       -0.3429
     25 C           0.9258    2.2478    5.3085 C.3     1  UNL1        0.1134
     26 H          -0.0669    2.4479    5.7117 H       1  UNL1        0.0649
     27 C           1.6276    3.5720    4.9962 C.3     1  UNL1        0.0875
     28 H           1.6807    4.1775    5.9010 H       1  UNL1        0.0621
     29 O           2.9493    3.3086    4.5208 O.3     1  UNL1       -0.3456
     30 C           3.7823    2.6268    5.4607 C.3     1  UNL1        0.1624
     31 H           3.8635    3.2199    6.3716 H       1  UNL1        0.0910
     32 C           3.1670    1.2646    5.7917 C.3     1  UNL1        0.0270
     33 C           1.7515    1.4718    6.3392 C.3     1  UNL1        0.0884
     34 H           1.7996    2.0385    7.2691 H       1  UNL1        0.0622
     35 O           1.1422    0.2023    6.5820 O.3     1  UNL1       -0.3890
     36 O           5.0819    2.4387    4.8970 O.3     1  UNL1       -0.3480
     37 C           5.8365    3.6463    4.7585 C.3     1  UNL1        0.0620
     38 H           5.5376    4.3418    5.5456 H       1  UNL1        0.0597
     39 C           5.5405    4.2698    3.3984 C.3     1  UNL1       -0.0260
     40 C           6.4020    5.5118    3.1498 C.3     1  UNL1       -0.0448
     41 C           7.8747    5.1457    3.2834 C.3     1  UNL1       -0.0259
     42 C           8.1196    4.6074    4.6935 C.3     1  UNL1       -0.0330
     43 H           7.7240    5.3479    5.4095 H       1  UNL1        0.0307
     44 C           7.3279    3.3265    4.9120 C.3     1  UNL1       -0.0232
     45 C           9.6076    4.4579    4.9679 C.3     1  UNL1       -0.0493
     46 C          10.2278    5.8630    5.0620 C.3     1  UNL1       -0.0470
     47 C           9.2893    6.8621    4.3983 C.3     1  UNL1       -0.0083
     48 H           8.3920    6.9350    5.0493 H       1  UNL1        0.0331
     49 C           8.8058    6.3367    3.0499 C.3     1  UNL1       -0.0299
     50 H           9.6462    5.9309    2.4855 H       1  UNL1        0.0310
     51 C           8.1297    7.4337    2.2464 C.3     1  UNL1       -0.0488
     52 C           9.0842    8.5922    1.9188 C.3     1  UNL1       -0.0442
     53 C          10.2645    8.6141    2.8509 C.3     1  UNL1        0.0036
     54 C           9.8395    8.2552    4.2890 C.3     1  UNL1        0.0751
     55 C          11.1265    8.5379    5.0814 C.3     1  UNL1       -0.0226
     56 C          11.6567    9.8451    4.4347 C.3     1  UNL1       -0.0432
     57 C          10.9771    9.9620    3.0468 C.3     1  UNL1       -0.0081
     58 H          11.7466   10.0680    2.2744 H       1  UNL1        0.0353
     59 C          10.0441   11.1448    3.0070 C.2     1  UNL1       -0.0222
     60 C          10.1502   12.2111    2.2182 C.2     1  UNL1        0.0252
     61 C           9.0421   13.1314    2.4872 C.2     1  UNL1        0.3323
     62 O           8.8639   14.1926    1.9224 O.2     1  UNL1       -0.2456
     63 O           8.2533   12.6297    3.4559 O.3     1  UNL1       -0.4571
     64 C           8.8138   11.3489    3.8598 C.3     1  UNL1        0.1147
     65 O           8.8224    9.1724    4.7470 O.3     1  UNL1       -0.3877
     66 C          11.3556    7.6576    2.3321 C.3     1  UNL1       -0.0564
     67 C           8.2285    4.0818    2.2407 C.3     1  UNL1       -0.0590
     68 C           0.8402    4.3261    3.9228 C.3     1  UNL1       -0.0361
     69 C          -3.8585    2.0797    3.5053 C.3     1  UNL1       -0.0361
     70 O          -4.4304    2.7399   -2.7049 O.3     1  UNL1       -0.3890
     71 O          -6.1080    0.4366   -2.9446 O.3     1  UNL1       -0.3867
     72 H          -6.2336    0.9447    0.2169 H       1  UNL1        0.0255
     73 H          -7.2464   -0.1151   -0.7928 H       1  UNL1        0.0255
     74 H          -6.5083   -0.7467    0.6987 H       1  UNL1        0.0255
     75 H          -3.3221    2.8397   -0.2498 H       1  UNL1        0.0340
     76 H          -2.5865    1.5463   -1.2287 H       1  UNL1        0.0340
     77 H           0.4711   -0.9551    3.0185 H       1  UNL1        0.0340
     78 H          -0.1178    0.3153    1.9188 H       1  UNL1        0.0340
     79 H          -0.9180   -2.5082    1.6008 H       1  UNL1        0.2099
     80 H           3.1227    0.6558    4.8886 H       1  UNL1        0.0340
     81 H           3.7782    0.7611    6.5407 H       1  UNL1        0.0340
     82 H           1.6136   -0.3434    7.2264 H       1  UNL1        0.2099
     83 H           5.6894    3.5329    2.6116 H       1  UNL1        0.0290
     84 H           4.4832    4.5698    3.3769 H       1  UNL1        0.0290
     85 H           6.1476    6.2865    3.8784 H       1  UNL1        0.0271
     86 H           6.2073    5.8940    2.1438 H       1  UNL1        0.0271
     87 H           7.5066    2.9696    5.9350 H       1  UNL1        0.0293
     88 H           7.6242    2.5462    4.2204 H       1  UNL1        0.0293
     89 H           9.7525    3.9442    5.9226 H       1  UNL1        0.0268
     90 H          10.0967    3.8941    4.1793 H       1  UNL1        0.0268
     91 H          11.1915    5.8614    4.5604 H       1  UNL1        0.0269
     92 H          10.3582    6.1253    6.1113 H       1  UNL1        0.0269
     93 H           7.7473    7.0174    1.3069 H       1  UNL1        0.0268
     94 H           7.2763    7.8279    2.8090 H       1  UNL1        0.0268
     95 H           9.4403    8.4752    0.8837 H       1  UNL1        0.0272
     96 H           8.5102    9.5222    1.9585 H       1  UNL1        0.0272
     97 H          10.8904    8.7058    6.1352 H       1  UNL1        0.0293
     98 H          11.8457    7.7304    4.9831 H       1  UNL1        0.0293
     99 H          11.3930   10.7028    5.0523 H       1  UNL1        0.0272
    100 H          12.7388    9.7910    4.3134 H       1  UNL1        0.0272
    101 H          10.9315   12.3723    1.4902 H       1  UNL1        0.0689
    102 H           8.0944   10.5503    3.6781 H       1  UNL1        0.0746
    103 H           9.0879   11.3738    4.9145 H       1  UNL1        0.0746
    104 H           8.5127    8.9991    5.6465 H       1  UNL1        0.2102
    105 H          11.7645    8.0449    1.3989 H       1  UNL1        0.0236
    106 H          12.1516    7.5786    3.0726 H       1  UNL1        0.0236
    107 H          10.9224    6.6726    2.1579 H       1  UNL1        0.0236
    108 H           7.6087    3.1990    2.3976 H       1  UNL1        0.0235
    109 H           8.0493    4.4787    1.2414 H       1  UNL1        0.0235
    110 H           9.2794    3.8104    2.3407 H       1  UNL1        0.0235
    111 H          -0.1468    4.5817    4.3085 H       1  UNL1        0.0255
    112 H           1.3730    5.2385    3.6550 H       1  UNL1        0.0255
    113 H           0.7332    3.6954    3.0403 H       1  UNL1        0.0255
    114 H          -4.8294    1.5957    3.3992 H       1  UNL1        0.0255
    115 H          -3.8769    2.7458    4.3678 H       1  UNL1        0.0255
    116 H          -3.6393    2.6555    2.6061 H       1  UNL1        0.0255
    117 H          -4.2635    3.6566   -2.4466 H       1  UNL1        0.2099
    118 H          -6.3291   -0.4325   -3.3062 H       1  UNL1        0.2100
@<TRIPOS>BOND
     1     1     2    1
     2     1    72    1
     3     1    73    1
     4     1    74    1
     5     2     3    1
     6     2    11    1
     7     2     4    1
     8     4     5    1
     9     4     6    1
    10     4    71    1
    11     6     7    1
    12     6     8    1
    13     6    70    1
    14     8     9    1
    15     8    75    1
    16     8    76    1
    17     9    10    1
    18     9    11    1
    19     9    12    1
    20    12    13    1
    21    13    14    1
    22    13    21    1
    23    13    15    1
    24    15    16    1
    25    15    17    1
    26    15    69    1
    27    17    18    1
    28    18    19    1
    29    18    20    1
    30    18    24    1
    31    20    21    1
    32    20    77    1
    33    20    78    1
    34    21    22    1
    35    21    23    1
    36    23    79    1
    37    24    25    1
    38    25    26    1
    39    25    33    1
    40    25    27    1
    41    27    28    1
    42    27    29    1
    43    27    68    1
    44    29    30    1
    45    30    31    1
    46    30    32    1
    47    30    36    1
    48    32    33    1
    49    32    80    1
    50    32    81    1
    51    33    34    1
    52    33    35    1
    53    35    82    1
    54    36    37    1
    55    37    38    1
    56    37    44    1
    57    37    39    1
    58    39    40    1
    59    39    83    1
    60    39    84    1
    61    40    41    1
    62    40    85    1
    63    40    86    1
    64    41    49    1
    65    41    42    1
    66    41    67    1
    67    42    43    1
    68    42    44    1
    69    42    45    1
    70    44    87    1
    71    44    88    1
    72    45    46    1
    73    45    89    1
    74    45    90    1
    75    46    47    1
    76    46    91    1
    77    46    92    1
    78    47    48    1
    79    47    54    1
    80    47    49    1
    81    49    50    1
    82    49    51    1
    83    51    52    1
    84    51    93    1
    85    51    94    1
    86    52    53    1
    87    52    95    1
    88    52    96    1
    89    53    57    1
    90    53    54    1
    91    53    66    1
    92    54    55    1
    93    54    65    1
    94    55    56    1
    95    55    97    1
    96    55    98    1
    97    56    57    1
    98    56    99    1
    99    56   100    1
   100    57    58    1
   101    57    59    1
   102    59    64    1
   103    59    60    2
   104    60    61    1
   105    60   101    1
   106    61    62    2
   107    61    63    1
   108    63    64    1
   109    64   102    1
   110    64   103    1
   111    65   104    1
   112    66   105    1
   113    66   106    1
   114    66   107    1
   115    67   108    1
   116    67   109    1
   117    67   110    1
   118    68   111    1
   119    68   112    1
   120    68   113    1
   121    69   114    1
   122    69   115    1
   123    69   116    1
   124    70   117    1
   125    71   118    1
