@<TRIPOS>MOLECULE
ZINC11592768
 61 61 0 0 0
SMALL
GASTEIGER

@<TRIPOS>ATOM
      1 C          -3.6580    8.4468   13.4373 C.3     1  UNL1       -0.0653
      2 C          -2.8720    7.8966   12.2454 C.3     1  UNL1       -0.0559
      3 C          -3.6242    6.7080   11.6435 C.3     1  UNL1       -0.0532
      4 C          -2.8383    6.1577   10.4516 C.3     1  UNL1       -0.0502
      5 C          -3.5905    4.9692    9.8496 C.3     1  UNL1       -0.0206
      6 C          -2.8046    4.4189    8.6578 C.3     1  UNL1        0.0814
      7 C          -2.5420    5.5453    7.6562 C.3     1  UNL1       -0.0324
      8 C          -3.6025    3.3288    7.9900 C.2     1  UNL1       -0.0567
      9 C          -3.1130    2.1167    7.9056 C.2     1  UNL1       -0.0794
     10 C          -3.9110    1.0266    7.2378 C.3     1  UNL1        0.0087
     11 H          -4.8741    1.4165    6.9087 H       1  UNL1        0.0372
     12 C          -4.1216   -0.1496    8.2153 C.3     1  UNL1        0.0641
     13 H          -3.3406   -0.1589    8.9755 H       1  UNL1        0.0600
     14 C          -4.0220   -1.4098    7.3203 C.3     1  UNL1        0.0001
     15 C          -2.8970   -1.0337    6.3243 C.3     1  UNL1        0.0613
     16 H          -1.9182   -1.1857    6.7792 H       1  UNL1        0.0597
     17 C          -3.1318    0.4636    6.0363 C.3     1  UNL1       -0.0029
     18 H          -3.7165    0.5811    5.1239 H       1  UNL1        0.0335
     19 C          -1.7909    1.1868    5.8958 C.3     1  UNL1       -0.0290
     20 C          -1.0855    0.7008    4.6559 C.2     1  UNL1       -0.0876
     21 C          -0.6942    1.5584    3.7462 C.2     1  UNL1       -0.0879
     22 C           0.0111    1.0724    2.5063 C.3     1  UNL1       -0.0344
     23 C          -0.7288    1.5792    1.2668 C.3     1  UNL1       -0.0445
     24 C          -0.0127    1.0858    0.0080 C.3     1  UNL1       -0.0129
     25 C          -0.7416    1.5850   -1.2129 C.2     1  UNL1        0.0418
     26 O          -1.7322    2.2656   -1.0889 O.co2   1  UNL1       -0.5498
     27 O          -3.0130   -1.7983    5.1227 O.3     1  UNL1       -0.3914
     28 O          -5.4123   -0.0687    8.8233 O.3     1  UNL1       -0.3911
     29 O          -1.5591    3.8866    9.1133 O.3     1  UNL1       -0.3848
     30 H          -3.1221    9.2935   13.8661 H       1  UNL1        0.0230
     31 H          -4.6435    8.7717   13.1038 H       1  UNL1        0.0230
     32 H          -3.7682    7.6671   14.1910 H       1  UNL1        0.0230
     33 H          -1.8865    7.5716   12.5789 H       1  UNL1        0.0263
     34 H          -2.7618    8.6762   11.4917 H       1  UNL1        0.0263
     35 H          -4.6098    7.0329   11.3100 H       1  UNL1        0.0265
     36 H          -3.7344    5.9283   12.3972 H       1  UNL1        0.0265
     37 H          -1.8527    5.8328   10.7851 H       1  UNL1        0.0266
     38 H          -2.7281    6.9374    9.6979 H       1  UNL1        0.0266
     39 H          -4.5761    5.2941    9.5162 H       1  UNL1        0.0296
     40 H          -3.7007    4.1895   10.6033 H       1  UNL1        0.0296
     41 H          -3.4920    5.9513    7.3088 H       1  UNL1        0.0260
     42 H          -1.9648    6.3338    8.1392 H       1  UNL1        0.0260
     43 H          -1.9821    5.1533    6.8071 H       1  UNL1        0.0260
     44 H          -4.5780    3.5469    7.5810 H       1  UNL1        0.0597
     45 H          -2.1375    1.8986    8.3146 H       1  UNL1        0.0574
     46 H          -4.9606   -1.5854    6.7946 H       1  UNL1        0.0315
     47 H          -3.7397   -2.2815    7.9107 H       1  UNL1        0.0315
     48 H          -1.1732    0.9801    6.7698 H       1  UNL1        0.0311
     49 H          -1.9634    2.2603    5.8185 H       1  UNL1        0.0311
     50 H          -0.9025   -0.3545    4.5173 H       1  UNL1        0.0569
     51 H          -0.8772    2.6137    3.8848 H       1  UNL1        0.0569
     52 H           0.0259   -0.0175    2.5003 H       1  UNL1        0.0307
     53 H           1.0337    1.4497    2.4986 H       1  UNL1        0.0307
     54 H          -0.7436    2.6691    1.2728 H       1  UNL1        0.0272
     55 H          -1.7514    1.2020    1.2746 H       1  UNL1        0.0272
     56 H           0.0021   -0.0041    0.0020 H       1  UNL1        0.0325
     57 H           1.0099    1.4631    0.0003 H       1  UNL1        0.0325
     58 H          -2.8746   -2.7475    5.2456 H       1  UNL1        0.2098
     59 H          -5.6212   -0.8139    9.4032 H       1  UNL1        0.2098
     60 H          -1.6493    3.1667    9.7525 H       1  UNL1        0.2106
     61 O          -0.2903    1.2736   -2.4381 O.co2   1  UNL1       -0.5498
@<TRIPOS>UNITY_ATOM_ATTR
61 1
charge -1
@<TRIPOS>BOND
     1     1     2    1
     2     1    30    1
     3     1    31    1
     4     1    32    1
     5     2     3    1
     6     2    33    1
     7     2    34    1
     8     3     4    1
     9     3    35    1
    10     3    36    1
    11     4     5    1
    12     4    37    1
    13     4    38    1
    14     5     6    1
    15     5    39    1
    16     5    40    1
    17     6     7    1
    18     6     8    1
    19     6    29    1
    20     7    41    1
    21     7    42    1
    22     7    43    1
    23     8     9    2
    24     8    44    1
    25     9    10    1
    26     9    45    1
    27    10    11    1
    28    10    17    1
    29    10    12    1
    30    12    13    1
    31    12    14    1
    32    12    28    1
    33    14    15    1
    34    14    46    1
    35    14    47    1
    36    15    16    1
    37    15    17    1
    38    15    27    1
    39    17    18    1
    40    17    19    1
    41    19    20    1
    42    19    48    1
    43    19    49    1
    44    20    21    2
    45    20    50    1
    46    21    22    1
    47    21    51    1
    48    22    23    1
    49    22    52    1
    50    22    53    1
    51    23    24    1
    52    23    54    1
    53    23    55    1
    54    24    25    1
    55    24    56    1
    56    24    57    1
    57    25    26   ar
    58    25    61   ar
    59    27    58    1
    60    28    59    1
    61    29    60    1
