@<TRIPOS>MOLECULE
ZINC00897240
 52 55 0 0 0
SMALL
GASTEIGER

@<TRIPOS>ATOM
      1 C           2.1488   -1.0838   -2.7975 C.3     1  UNL1       -0.0431
      2 C           1.5252    1.2015   -2.4142 C.3     1  UNL1       -0.0321
      3 C           1.9354    2.3073   -1.4230 C.3     1  UNL1       -0.0106
      4 C           1.3982    2.0466   -0.0003 C.3     1  UNL1       -0.0254
      5 C          -0.0189    1.5409    0.0105 C.3     1  UNL1        0.0614
      6 H          -0.5429    1.9038   -0.8737 H       1  UNL1        0.0548
      7 C           0.0021   -0.0041    0.0020 C.3     1  UNL1        0.0100
      8 C           0.2977   -0.5294   -1.3262 C.3     1  UNL1       -0.0302
      9 N          -0.7003    2.0158    1.2173 N.ar    1  UNL1       -0.2254
     10 C          -1.8041    2.7815    1.0900 C.ar    1  UNL1        0.2753
     11 O          -2.2314    3.0760   -0.0120 O.2     1  UNL1       -0.2655
     12 C          -2.4836    3.2480    2.3049 C.ar    1  UNL1        0.0498
     13 C          -3.6315    4.0376    2.2530 C.ar    1  UNL1       -0.0487
     14 C          -4.2222    4.4500    3.4272 C.ar    1  UNL1       -0.0610
     15 C          -3.6861    4.0874    4.6562 C.ar    1  UNL1       -0.0611
     16 C          -2.5616    3.3139    4.7311 C.ar    1  UNL1       -0.0521
     17 C          -1.9411    2.8810    3.5577 C.ar    1  UNL1        0.0106
     18 C          -0.7358    2.0522    3.5821 C.ar    1  UNL1        0.0738
     19 N          -0.1875    1.6692    2.4676 N.ar    1  UNL1       -0.1720
     20 C          -0.1301    1.6420    4.8996 C.3     1  UNL1        0.0171
     21 C           1.0935    0.7987    4.6491 C.ar    1  UNL1       -0.0414
     22 C           0.9765   -0.5748    4.5449 C.ar    1  UNL1       -0.0568
     23 C           2.0975   -1.3483    4.3096 C.ar    1  UNL1       -0.0431
     24 C           3.3386   -0.7487    4.1896 C.ar    1  UNL1        0.0410
     25 C           3.4558    0.6255    4.2996 C.ar    1  UNL1       -0.0431
     26 C           2.3333    1.3984    4.5293 C.ar    1  UNL1       -0.0568
     27 CL          4.7480   -1.7201    3.9005 Cl      1  UNL1       -0.0835
     28 H           1.4640   -1.1602   -3.6420 H       1  UNL1        0.0777
     29 H           3.1256   -0.7531   -3.1506 H       1  UNL1        0.0777
     30 H           2.2462   -2.0585   -2.3194 H       1  UNL1        0.0777
     31 H           2.1751    1.2497   -3.2880 H       1  UNL1        0.0814
     32 H           0.4960    1.3723   -2.7299 H       1  UNL1        0.0814
     33 H           3.0233    2.3624   -1.3854 H       1  UNL1        0.0317
     34 H           1.5456    3.2616   -1.7771 H       1  UNL1        0.0317
     35 H           1.4433    2.9760    0.5674 H       1  UNL1        0.0288
     36 H           2.0372    1.3097    0.4863 H       1  UNL1        0.0288
     37 H           0.7625   -0.3535    0.7004 H       1  UNL1        0.0338
     38 H          -0.9714   -0.3750    0.3229 H       1  UNL1        0.0338
     39 H           0.2624   -1.6182   -1.2890 H       1  UNL1        0.0815
     40 H          -0.4661   -0.1791   -2.0204 H       1  UNL1        0.0815
     41 H          -4.0535    4.3237    1.3009 H       1  UNL1        0.0625
     42 H          -5.1117    5.0615    3.3918 H       1  UNL1        0.0618
     43 H          -4.1646    4.4208    5.5652 H       1  UNL1        0.0618
     44 H          -2.1553    3.0388    5.6932 H       1  UNL1        0.0624
     45 H           0.1510    2.5318    5.4630 H       1  UNL1        0.0377
     46 H          -0.8581    1.0655    5.4704 H       1  UNL1        0.0377
     47 H           0.0083   -1.0432    4.6430 H       1  UNL1        0.0621
     48 H           2.0053   -2.4209    4.2238 H       1  UNL1        0.0632
     49 H           4.4244    1.0941    4.2064 H       1  UNL1        0.0632
     50 H           2.4246    2.4711    4.6149 H       1  UNL1        0.0621
     51 N           1.6325   -0.1079   -1.8107 N.4     1  UNL1        0.2331
     52 H           2.2810   -0.0612   -1.0161 H       1  UNL1        0.2030
@<TRIPOS>UNITY_ATOM_ATTR
51 1
charge 1
@<TRIPOS>BOND
     1     1    28    1
     2     1    29    1
     3     1    30    1
     4     1    51    1
     5     2     3    1
     6     2    31    1
     7     2    32    1
     8     2    51    1
     9     3     4    1
    10     3    33    1
    11     3    34    1
    12     4     5    1
    13     4    35    1
    14     4    36    1
    15     5     6    1
    16     5     7    1
    17     5     9    1
    18     7     8    1
    19     7    37    1
    20     7    38    1
    21     8    39    1
    22     8    40    1
    23     8    51    1
    24     9    19   ar
    25     9    10   ar
    26    10    11    2
    27    10    12   ar
    28    12    17   ar
    29    12    13   ar
    30    13    14   ar
    31    13    41    1
    32    14    15   ar
    33    14    42    1
    34    15    16   ar
    35    15    43    1
    36    16    17   ar
    37    16    44    1
    38    17    18   ar
    39    18    19   ar
    40    18    20    1
    41    20    21    1
    42    20    45    1
    43    20    46    1
    44    21    26   ar
    45    21    22   ar
    46    22    23   ar
    47    22    47    1
    48    23    24   ar
    49    23    48    1
    50    24    25   ar
    51    24    27    1
    52    25    26   ar
    53    25    49    1
    54    26    50    1
    55    51    52    1
