@<TRIPOS>MOLECULE
ZINC03831451
 68 70 0 0 0
SMALL
GASTEIGER

@<TRIPOS>ATOM
      1 C          -0.1517    0.1404   -0.1337 C.3     1  UNL1       -0.0643
      2 C          -0.8153    0.8082    1.0724 C.3     1  UNL1       -0.0406
      3 C          -2.2695    0.3440    1.1763 C.3     1  UNL1        0.0619
      4 C          -3.0209    0.7317   -0.0988 C.3     1  UNL1       -0.0497
      5 C          -2.3086   -1.1757    1.3492 C.3     1  UNL1       -0.0497
      6 C          -2.9231    1.0017    2.3643 C.2     1  UNL1        0.3130
      7 O          -2.2907    1.7635    3.0568 O.2     1  UNL1       -0.2502
      8 O          -4.2078    0.7411    2.6530 O.3     1  UNL1       -0.4603
      9 C          -4.7717    1.4101    3.8118 C.3     1  UNL1        0.1106
     10 H          -3.9844    1.5654    4.5495 H       1  UNL1        0.0740
     11 C          -5.3228    2.7682    3.3823 C.3     1  UNL1       -0.0090
     12 C          -6.4387    2.5344    2.3549 C.3     1  UNL1       -0.0218
     13 H          -6.0462    1.9773    1.5041 H       1  UNL1        0.0342
     14 C          -7.5250    1.7374    3.0297 C.2     1  UNL1       -0.0775
     15 C          -7.2387    0.8585    3.9721 C.2     1  UNL1       -0.0444
     16 C          -5.8429    0.5316    4.4136 C.3     1  UNL1        0.0243
     17 H          -5.6352   -0.4952    4.1126 H       1  UNL1        0.0388
     18 C          -5.8088    0.5549    5.9435 C.3     1  UNL1       -0.0247
     19 H          -6.1327    1.5322    6.3015 H       1  UNL1        0.0313
     20 C          -6.7546   -0.5245    6.4721 C.3     1  UNL1       -0.0219
     21 H          -6.8653   -0.4036    7.5497 H       1  UNL1        0.0343
     22 C          -8.1055   -0.4395    5.8294 C.2     1  UNL1       -0.0806
     23 C          -8.3447    0.1800    4.6866 C.2     1  UNL1       -0.0621
     24 C          -6.1512   -1.9009    6.1854 C.3     1  UNL1       -0.0587
     25 C          -4.3856    0.2729    6.4293 C.3     1  UNL1       -0.0457
     26 C          -4.3406    0.3633    7.9560 C.3     1  UNL1       -0.0153
     27 C          -2.9175    0.0812    8.4419 C.3     1  UNL1        0.1054
     28 H          -2.5835   -0.8804    8.0521 H       1  UNL1        0.0734
     29 C          -2.8966    0.0481    9.9725 C.3     1  UNL1        0.0109
     30 C          -1.4613   -0.1817   10.4559 C.3     1  UNL1        0.0686
     31 H          -1.0929   -1.1309   10.0668 H       1  UNL1        0.0600
     32 C          -0.5752    0.9623    9.9481 C.3     1  UNL1        0.0710
     33 C          -0.7657    1.0857    8.4523 C.2     1  UNL1        0.3098
     34 O           0.1840    1.1401    7.7073 O.2     1  UNL1       -0.2507
     35 O          -2.0266    1.1328    7.9742 O.3     1  UNL1       -0.4612
     36 O          -1.4361   -0.2083   11.8844 O.3     1  UNL1       -0.3911
     37 C          -6.9985    3.8777    1.8827 C.3     1  UNL1       -0.0588
     38 H          -0.1796   -0.9422   -0.0105 H       1  UNL1        0.0230
     39 H           0.8843    0.4712   -0.2077 H       1  UNL1        0.0230
     40 H          -0.6870    0.4167   -1.0421 H       1  UNL1        0.0230
     41 H          -0.2799    0.5319    1.9808 H       1  UNL1        0.0273
     42 H          -0.7874    1.8908    0.9493 H       1  UNL1        0.0273
     43 H          -2.5482    0.2560   -0.9580 H       1  UNL1        0.0240
     44 H          -4.0569    0.4010   -0.0248 H       1  UNL1        0.0240
     45 H          -2.9930    1.8144   -0.2219 H       1  UNL1        0.0240
     46 H          -1.7733   -1.4520    2.2576 H       1  UNL1        0.0240
     47 H          -3.3446   -1.5064    1.4232 H       1  UNL1        0.0240
     48 H          -1.8358   -1.6514    0.4899 H       1  UNL1        0.0240
     49 H          -5.7260    3.2917    4.2491 H       1  UNL1        0.0307
     50 H          -4.5272    3.3615    2.9317 H       1  UNL1        0.0307
     51 H          -8.5539    1.8878    2.7380 H       1  UNL1        0.0578
     52 H          -8.9357   -0.9137    6.3316 H       1  UNL1        0.0575
     53 H          -9.3431    0.1911    4.2749 H       1  UNL1        0.0617
     54 H          -6.0547   -2.0381    5.1084 H       1  UNL1        0.0235
     55 H          -5.1677   -1.9704    6.6501 H       1  UNL1        0.0235
     56 H          -6.8013   -2.6748    6.5935 H       1  UNL1        0.0235
     57 H          -4.0861   -0.7270    6.1156 H       1  UNL1        0.0269
     58 H          -3.7034    1.0076    6.0016 H       1  UNL1        0.0269
     59 H          -4.6402    1.3632    8.2698 H       1  UNL1        0.0301
     60 H          -5.0228   -0.3714    8.3837 H       1  UNL1        0.0301
     61 H          -3.2638    0.9976   10.3619 H       1  UNL1        0.0326
     62 H          -3.5342   -0.7615   10.3275 H       1  UNL1        0.0326
     63 H          -0.8652    1.8943   10.4332 H       1  UNL1        0.0403
     64 H           0.4695    0.7432   10.1688 H       1  UNL1        0.0403
     65 H          -0.5564   -0.3505   12.2597 H       1  UNL1        0.2098
     66 H          -7.3754    4.4358    2.7397 H       1  UNL1        0.0235
     67 H          -6.2086    4.4495    1.3956 H       1  UNL1        0.0235
     68 H          -7.8104    3.7048    1.1762 H       1  UNL1        0.0235
@<TRIPOS>BOND
     1     1     2    1
     2     1    38    1
     3     1    39    1
     4     1    40    1
     5     2     3    1
     6     2    41    1
     7     2    42    1
     8     3     4    1
     9     3     5    1
    10     3     6    1
    11     4    43    1
    12     4    44    1
    13     4    45    1
    14     5    46    1
    15     5    47    1
    16     5    48    1
    17     6     7    2
    18     6     8    1
    19     8     9    1
    20     9    10    1
    21     9    16    1
    22     9    11    1
    23    11    12    1
    24    11    49    1
    25    11    50    1
    26    12    13    1
    27    12    14    1
    28    12    37    1
    29    14    15    2
    30    14    51    1
    31    15    23    1
    32    15    16    1
    33    16    17    1
    34    16    18    1
    35    18    19    1
    36    18    20    1
    37    18    25    1
    38    20    21    1
    39    20    22    1
    40    20    24    1
    41    22    23    2
    42    22    52    1
    43    23    53    1
    44    24    54    1
    45    24    55    1
    46    24    56    1
    47    25    26    1
    48    25    57    1
    49    25    58    1
    50    26    27    1
    51    26    59    1
    52    26    60    1
    53    27    28    1
    54    27    35    1
    55    27    29    1
    56    29    30    1
    57    29    61    1
    58    29    62    1
    59    30    31    1
    60    30    32    1
    61    30    36    1
    62    32    33    1
    63    32    63    1
    64    32    64    1
    65    33    34    2
    66    33    35    1
    67    36    65    1
    68    37    66    1
    69    37    67    1
    70    37    68    1
