@<TRIPOS>MOLECULE
ZINC01586788
 25 25 0 0 0
SMALL
GASTEIGER

@<TRIPOS>ATOM
      1 C           3.7435   -6.3538   -0.0665 C.3     1  UNL1       -0.0622
      2 C           3.7979   -4.8248   -0.0594 C.3     1  UNL1       -0.0214
      3 C           2.3745   -4.2639   -0.0426 C.3     1  UNL1        0.0925
      4 O           2.4260   -2.8129   -0.0358 O.3     1  UNL1       -0.4612
      5 C           1.2480   -2.1589   -0.0210 C.2     1  UNL1        0.3392
      6 O           0.2061   -2.7841   -0.0140 O.2     1  UNL1       -0.2450
      7 C           1.2232   -0.6845   -0.0133 C.ar    1  UNL1        0.0592
      8 C           0.0021   -0.0041    0.0020 C.ar    1  UNL1       -0.0443
      9 C          -0.0166    1.3726    0.0096 C.ar    1  UNL1       -0.0194
     10 C           1.1765    2.0859    0.0020 C.ar    1  UNL1        0.1169
     11 C           2.3930    1.4132   -0.0133 C.ar    1  UNL1       -0.0194
     12 C           2.4207    0.0368   -0.0210 C.ar    1  UNL1       -0.0443
     13 O           1.1537    3.4427    0.0096 O.3     1  UNL1       -0.5068
     14 H           4.7576   -6.7533   -0.0784 H       1  UNL1        0.0231
     15 H           3.2258   -6.7031    0.8268 H       1  UNL1        0.0231
     16 H           3.2084   -6.6942   -0.9530 H       1  UNL1        0.0231
     17 H           4.3155   -4.4754   -0.9527 H       1  UNL1        0.0295
     18 H           4.3329   -4.4844    0.8272 H       1  UNL1        0.0295
     19 H           1.8568   -4.6133    0.8507 H       1  UNL1        0.0697
     20 H           1.8394   -4.6043   -0.9291 H       1  UNL1        0.0697
     21 H          -0.9253   -0.5575    0.0083 H       1  UNL1        0.0627
     22 H          -0.9596    1.8990    0.0169 H       1  UNL1        0.0654
     23 H           3.3177    1.9712   -0.0195 H       1  UNL1        0.0654
     24 H           3.3661   -0.4851   -0.0325 H       1  UNL1        0.0627
     25 H           1.1556    3.8312    0.8951 H       1  UNL1        0.2921
@<TRIPOS>BOND
     1     1     2    1
     2     1    14    1
     3     1    15    1
     4     1    16    1
     5     2     3    1
     6     2    17    1
     7     2    18    1
     8     3     4    1
     9     3    19    1
    10     3    20    1
    11     4     5    1
    12     5     6    2
    13     5     7    1
    14     7    12   ar
    15     7     8   ar
    16     8     9   ar
    17     8    21    1
    18     9    10   ar
    19     9    22    1
    20    10    11   ar
    21    10    13    1
    22    11    12   ar
    23    11    23    1
    24    12    24    1
    25    13    25    1
