@<TRIPOS>MOLECULE
ZINC00000693
 27 27 0 0 0
SMALL
GASTEIGER

@<TRIPOS>ATOM
      1 C          -0.6660    3.1191   -1.2886 C.3     1  UNL1       -0.0130
      2 C          -0.7527    1.5927   -1.2315 C.3     1  UNL1        0.0279
      3 C          -0.0127    1.0858    0.0080 C.3     1  UNL1        0.0235
      4 C          -0.7181    1.5718    1.2479 C.ar    1  UNL1       -0.0412
      5 C          -0.3589    2.7793    1.8178 C.ar    1  UNL1       -0.0549
      6 C          -1.0078    3.2297    2.9511 C.ar    1  UNL1       -0.0199
      7 C          -2.0132    2.4642    3.5237 C.ar    1  UNL1        0.1169
      8 C          -2.3679    1.2503    2.9532 C.ar    1  UNL1       -0.0199
      9 C          -1.7195    0.8068    1.8169 C.ar    1  UNL1       -0.0549
     10 O          -2.6494    2.9025    4.6418 O.3     1  UNL1       -0.5068
     11 C          -0.1210    1.0071   -2.4681 C.2     1  UNL1        0.0926
     12 O           1.0344    0.6542   -2.4471 O.co2   1  UNL1       -0.5439
     13 H           0.3797    3.4220   -1.3406 H       1  UNL1        0.0291
     14 H          -1.1932    3.4802   -2.1717 H       1  UNL1        0.0291
     15 H          -1.1229    3.5427   -0.3942 H       1  UNL1        0.0291
     16 H           0.0021   -0.0041    0.0020 H       1  UNL1        0.0375
     17 H           1.0099    1.4631    0.0003 H       1  UNL1        0.0375
     18 H           0.4269    3.3727    1.3742 H       1  UNL1        0.0621
     19 H          -0.7302    4.1751    3.3931 H       1  UNL1        0.0654
     20 H          -3.1505    0.6528    3.3969 H       1  UNL1        0.0654
     21 H          -1.9952   -0.1380    1.3724 H       1  UNL1        0.0621
     22 H          -2.2341    2.6182    5.4675 H       1  UNL1        0.2921
     23 H          -2.2461    0.1797   -1.1228 H       1  UNL1        0.2003
     24 H          -2.6250    1.6165   -0.3758 H       1  UNL1        0.2003
     25 O          -0.8420    0.8774   -3.5929 O.co2   1  UNL1       -0.5439
     26 N          -2.1704    1.1938   -1.1835 N.4     1  UNL1        0.2271
     27 H          -2.6404    1.5142   -2.0382 H       1  UNL1        0.2003
@<TRIPOS>UNITY_ATOM_ATTR
25 1
charge -1
26 1
charge 1
@<TRIPOS>BOND
     1     1     2    1
     2     1    13    1
     3     1    14    1
     4     1    15    1
     5     2     3    1
     6     2    11    1
     7     2    26    1
     8     3     4    1
     9     3    16    1
    10     3    17    1
    11     4     9   ar
    12     4     5   ar
    13     5     6   ar
    14     5    18    1
    15     6     7   ar
    16     6    19    1
    17     7     8   ar
    18     7    10    1
    19     8     9   ar
    20     8    20    1
    21     9    21    1
    22    10    22    1
    23    11    12   ar
    24    11    25   ar
    25    23    26    1
    26    24    26    1
    27    26    27    1
