@<TRIPOS>MOLECULE
ZINC03830934
 21 21 0 0 0
SMALL
GASTEIGER

@<TRIPOS>ATOM
      1 C           2.0209    0.8749    0.8726 C.3     1  UNL1        0.0791
      2 C           1.0952   -0.3580    0.8748 C.3     1  UNL1        0.1079
      3 H           0.7277   -0.5542    1.8821 H       1  UNL1        0.0643
      4 O           0.0021   -0.0041    0.0020 O.3     1  UNL1       -0.3435
      5 C          -0.0175    1.4398    0.0100 C.3     1  UNL1        0.1605
      6 H          -0.5061    1.8082    0.9120 H       1  UNL1        0.0910
      7 O           1.3745    1.8238   -0.0013 O.3     1  UNL1       -0.3486
      8 C          -0.7273    1.9705   -1.2372 C.3     1  UNL1        0.0073
      9 C          -0.8463    3.4932   -1.1473 C.3     1  UNL1        0.0043
     10 I          -1.8493    4.2430   -2.9096 I       1  UNL1       -0.0852
     11 C           1.8364   -1.5807    0.3301 C.3     1  UNL1        0.0727
     12 O           0.9772   -2.7213    0.3832 O.3     1  UNL1       -0.3924
     13 H           2.1085    1.2848    1.8787 H       1  UNL1        0.0587
     14 H           3.0046    0.6096    0.4852 H       1  UNL1        0.0587
     15 H          -0.1527    1.7027   -2.1239 H       1  UNL1        0.0321
     16 H          -1.7228    1.5315   -1.3032 H       1  UNL1        0.0321
     17 H          -1.4210    3.7609   -0.2606 H       1  UNL1        0.0374
     18 H           0.1492    3.9321   -1.0813 H       1  UNL1        0.0374
     19 H           2.1318   -1.3962   -0.7027 H       1  UNL1        0.0584
     20 H           2.7244   -1.7663    0.9344 H       1  UNL1        0.0584
     21 H           1.3823   -3.5347    0.0527 H       1  UNL1        0.2095
@<TRIPOS>BOND
     1     1     7    1
     2     1     2    1
     3     1    13    1
     4     1    14    1
     5     2     3    1
     6     2     4    1
     7     2    11    1
     8     4     5    1
     9     5     6    1
    10     5     7    1
    11     5     8    1
    12     8     9    1
    13     8    15    1
    14     8    16    1
    15     9    10    1
    16     9    17    1
    17     9    18    1
    18    11    12    1
    19    11    19    1
    20    11    20    1
    21    12    21    1
