@<TRIPOS>MOLECULE
ZINC00001192
 17 17 0 0 0
SMALL
GASTEIGER

@<TRIPOS>ATOM
      1 C           1.1382   -2.1825   -0.0200 C.3     1  UNL1       -0.0216
      2 C           1.1345   -0.6756   -0.0124 C.ar    1  UNL1        0.0485
      3 C           2.2986    0.0226   -0.0198 C.ar    1  UNL1        0.0133
      4 S           1.6767    1.6979   -0.0048 S.2     1  UNL1       -0.0801
      5 C          -0.0157    1.3088    0.0092 C.ar    1  UNL1        0.0652
      6 N           0.0021   -0.0041    0.0020 N.ar    1  UNL1       -0.2523
      7 C           3.7204   -0.4764   -0.0360 C.3     1  UNL1       -0.0062
      8 C           4.1879   -0.6376   -1.4839 C.3     1  UNL1        0.0271
      9 CL          5.8890   -1.2346   -1.5034 Cl      1  UNL1       -0.1251
     10 H           1.1295   -2.5407   -1.0495 H       1  UNL1        0.0293
     11 H           2.0338   -2.5462    0.4836 H       1  UNL1        0.0293
     12 H           0.2539   -2.5507    0.5002 H       1  UNL1        0.0293
     13 H          -0.8652    1.9757    0.0171 H       1  UNL1        0.0907
     14 H           4.3629    0.2402    0.4756 H       1  UNL1        0.0330
     15 H           3.7734   -1.4393    0.4722 H       1  UNL1        0.0330
     16 H           3.5454   -1.3543   -1.9955 H       1  UNL1        0.0433
     17 H           4.1349    0.3253   -1.9921 H       1  UNL1        0.0433
@<TRIPOS>BOND
     1     1     2    1
     2     1    10    1
     3     1    11    1
     4     1    12    1
     5     2     6   ar
     6     2     3   ar
     7     3     4   ar
     8     3     7    1
     9     4     5   ar
    10     5     6   ar
    11     5    13    1
    12     7     8    1
    13     7    14    1
    14     7    15    1
    15     8     9    1
    16     8    16    1
    17     8    17    1
