@<TRIPOS>MOLECULE
ZINC03831528
 62 65 0 0 0
SMALL
GASTEIGER

@<TRIPOS>ATOM
      1 C           9.1080    5.4455    3.3628 C.3     1  UNL1       -0.0427
      2 C           9.3133    3.6561    1.7439 C.3     1  UNL1        0.0092
      3 C           8.6129    2.9658    0.5711 C.3     1  UNL1        0.0094
      4 C           6.4620    3.4540    1.5681 C.3     1  UNL1        0.0094
      5 C           7.1624    4.1444    2.7409 C.3     1  UNL1        0.0092
      6 C           6.6674    1.6647   -0.0508 C.3     1  UNL1       -0.0300
      7 C           5.4786    0.8891    0.5204 C.3     1  UNL1        0.0036
      8 C           4.7826    0.1210   -0.6050 C.3     1  UNL1        0.0221
      9 N           3.6443   -0.6216   -0.0582 N.pl3   1  UNL1       -0.2981
     10 C           2.4102    0.0225   -0.0264 C.ar    1  UNL1        0.0479
     11 C           2.3792    1.4133   -0.0156 C.ar    1  UNL1       -0.0393
     12 C           1.1715    2.0845    0.0021 C.ar    1  UNL1       -0.0599
     13 C          -0.0167    1.3787    0.0096 C.ar    1  UNL1       -0.0606
     14 C           0.0021   -0.0041    0.0020 C.ar    1  UNL1       -0.0462
     15 C           1.2112   -0.6846   -0.0131 C.ar    1  UNL1        0.0341
     16 S           1.2160   -2.4460   -0.0094 S.3     1  UNL1       -0.0857
     17 C           2.8593   -2.8662    0.4641 C.ar    1  UNL1        0.0342
     18 C           3.8774   -1.9190    0.3906 C.ar    1  UNL1        0.0497
     19 C           5.1659   -2.2751    0.7740 C.ar    1  UNL1       -0.0129
     20 C           5.4324   -3.5553    1.2221 C.ar    1  UNL1        0.1073
     21 C           4.4199   -4.4927    1.2915 C.ar    1  UNL1       -0.0342
     22 C           3.1344   -4.1496    0.9130 C.ar    1  UNL1       -0.0443
     23 S           7.0691   -3.9933    1.7059 S.O2    1  UNL1        0.0604
     24 O           7.7238   -2.7842    2.0648 O.2     1  UNL1       -0.1529
     25 O           6.9481   -5.0892    2.6023 O.2     1  UNL1       -0.1529
     26 N           7.8411   -4.5674    0.3580 N.3     1  UNL1       -0.1827
     27 C           8.5776   -3.6472   -0.5121 C.3     1  UNL1        0.0086
     28 C           7.7874   -5.9955    0.0355 C.3     1  UNL1        0.0086
     29 H          10.0168    5.9086    2.9786 H       1  UNL1        0.0778
     30 H           8.4394    6.2179    3.7431 H       1  UNL1        0.0778
     31 H           9.3635    4.7572    4.1684 H       1  UNL1        0.0778
     32 H           9.5240    2.9241    2.5235 H       1  UNL1        0.0868
     33 H          10.2475    4.0997    1.3995 H       1  UNL1        0.0868
     34 H           9.2470    2.1659    0.1887 H       1  UNL1        0.0868
     35 H           8.4266    3.6923   -0.2199 H       1  UNL1        0.0868
     36 H           6.2513    4.1861    0.7885 H       1  UNL1        0.0868
     37 H           5.5280    3.0101    1.9126 H       1  UNL1        0.0868
     38 H           7.3487    3.4179    3.5319 H       1  UNL1        0.0868
     39 H           6.5283    4.9443    3.1233 H       1  UNL1        0.0868
     40 H           7.3717    0.9676   -0.5046 H       1  UNL1        0.0815
     41 H           6.3140    2.3672   -0.8056 H       1  UNL1        0.0815
     42 H           4.7742    1.5861    0.9743 H       1  UNL1        0.0332
     43 H           5.8320    0.1866    1.2752 H       1  UNL1        0.0332
     44 H           5.4870   -0.5761   -1.0589 H       1  UNL1        0.0470
     45 H           4.4292    0.8235   -1.3598 H       1  UNL1        0.0470
     46 H           3.3039    1.9713   -0.0213 H       1  UNL1        0.0636
     47 H           1.1560    3.1643    0.0100 H       1  UNL1        0.0618
     48 H          -0.9589    1.9065    0.0169 H       1  UNL1        0.0618
     49 H          -0.9265   -0.5555    0.0075 H       1  UNL1        0.0629
     50 H           5.9624   -1.5476    0.7215 H       1  UNL1        0.0656
     51 H           4.6319   -5.4925    1.6407 H       1  UNL1        0.0637
     52 H           2.3430   -4.8825    0.9673 H       1  UNL1        0.0630
     53 H           9.6113   -3.5761   -0.1736 H       1  UNL1        0.0408
     54 H           8.5555   -4.0194   -1.5363 H       1  UNL1        0.0408
     55 H           8.1141   -2.6614   -0.4736 H       1  UNL1        0.0408
     56 H           6.9231   -6.1925   -0.5987 H       1  UNL1        0.0408
     57 H           8.6974   -6.2836   -0.4907 H       1  UNL1        0.0408
     58 H           7.7017   -6.5728    0.9561 H       1  UNL1        0.0408
     59 N           8.4341    4.7256    2.2612 N.4     1  UNL1        0.2405
     60 H           8.2332    5.3884    1.5031 H       1  UNL1        0.2035
     61 N           7.3415    2.3845    1.0507 N.4     1  UNL1        0.2427
     62 H           7.5424    1.7217    1.8087 H       1  UNL1        0.2038
@<TRIPOS>UNITY_ATOM_ATTR
59 1
charge 1
61 1
charge 1
@<TRIPOS>BOND
     1     1    29    1
     2     1    30    1
     3     1    31    1
     4     1    59    1
     5     2     3    1
     6     2    32    1
     7     2    33    1
     8     2    59    1
     9     3    34    1
    10     3    35    1
    11     3    61    1
    12     4     5    1
    13     4    36    1
    14     4    37    1
    15     4    61    1
    16     5    38    1
    17     5    39    1
    18     5    59    1
    19     6     7    1
    20     6    40    1
    21     6    41    1
    22     6    61    1
    23     7     8    1
    24     7    42    1
    25     7    43    1
    26     8     9    1
    27     8    44    1
    28     8    45    1
    29     9    18    1
    30     9    10    1
    31    10    15   ar
    32    10    11   ar
    33    11    12   ar
    34    11    46    1
    35    12    13   ar
    36    12    47    1
    37    13    14   ar
    38    13    48    1
    39    14    15   ar
    40    14    49    1
    41    15    16    1
    42    16    17    1
    43    17    22   ar
    44    17    18   ar
    45    18    19   ar
    46    19    20   ar
    47    19    50    1
    48    20    21   ar
    49    20    23    1
    50    21    22   ar
    51    21    51    1
    52    22    52    1
    53    23    24    2
    54    23    25    2
    55    23    26    1
    56    26    27    1
    57    26    28    1
    58    27    53    1
    59    27    54    1
    60    27    55    1
    61    28    56    1
    62    28    57    1
    63    28    58    1
    64    59    60    1
    65    61    62    1
