@<TRIPOS>MOLECULE
ZINC00004076
 49 51 0 0 0
SMALL
GASTEIGER

@<TRIPOS>ATOM
      1 C           2.3617   -4.5550   -3.9349 C.3     1  UNL1        0.0055
      2 N           1.2243   -4.9049   -3.0805 N.3     1  UNL1       -0.1976
      3 S           1.2337   -4.4885   -1.4777 S.O2    1  UNL1        0.0294
      4 O           2.4793   -4.9645   -0.9867 O.2     1  UNL1       -0.1582
      5 O           0.0104   -4.9970   -0.9638 O.2     1  UNL1       -0.1582
      6 C           1.2100   -2.6747   -1.4671 C.3     1  UNL1        0.0857
      7 C           1.2168   -2.1729   -0.0218 C.3     1  UNL1       -0.0068
      8 C           1.1971   -0.6661   -0.0130 C.ar    1  UNL1       -0.0451
      9 C           2.3934    0.0383   -0.0206 C.ar    1  UNL1       -0.0565
     10 C           2.3978    1.4158   -0.0133 C.ar    1  UNL1       -0.0375
     11 C           1.1925    2.1105    0.0020 C.ar    1  UNL1        0.0468
     12 C          -0.0169    1.3921    0.0097 C.ar    1  UNL1        0.0033
     13 C           0.0021   -0.0041    0.0020 C.ar    1  UNL1       -0.0491
     14 C          -1.0838    2.3958    0.0194 C.ar    1  UNL1       -0.0189
     15 C          -0.4900    3.5997    0.0253 C.ar    1  UNL1        0.0062
     16 N           0.8699    3.4490    0.0118 N.ar    1  UNL1       -0.3604
     17 H           1.5112    4.1768    0.0101 H       1  UNL1        0.1653
     18 C          -2.5668    2.1277    0.0235 C.3     1  UNL1       -0.0043
     19 C          -3.2046    2.7605   -1.2164 C.3     1  UNL1       -0.0055
     20 C          -4.7181    2.5375   -1.1756 C.3     1  UNL1       -0.0316
     21 C          -4.7077    2.5172    1.2476 C.3     1  UNL1       -0.0316
     22 C          -3.1939    2.7396    1.2791 C.3     1  UNL1       -0.0055
     23 C          -6.7376    3.0683    0.0491 C.3     1  UNL1       -0.0431
     24 H           3.2658   -5.0239   -3.5463 H       1  UNL1        0.0405
     25 H           2.1764   -4.9083   -4.9493 H       1  UNL1        0.0405
     26 H           2.4893   -3.4726   -3.9448 H       1  UNL1        0.0405
     27 H           0.4656   -5.3804   -3.4536 H       1  UNL1        0.1473
     28 H           0.3105   -2.3201   -1.9705 H       1  UNL1        0.0519
     29 H           2.0903   -2.2967   -1.9871 H       1  UNL1        0.0519
     30 H           2.1163   -2.5275    0.4816 H       1  UNL1        0.0329
     31 H           0.3365   -2.5509    0.4982 H       1  UNL1        0.0329
     32 H           3.3301   -0.4992   -0.0321 H       1  UNL1        0.0621
     33 H           3.3337    1.9546   -0.0190 H       1  UNL1        0.0638
     34 H          -0.9246   -0.5587    0.0083 H       1  UNL1        0.0627
     35 H          -1.0088    4.5468    0.0350 H       1  UNL1        0.0810
     36 H          -2.7425    1.0519    0.0158 H       1  UNL1        0.0353
     37 H          -2.9945    3.8300   -1.2279 H       1  UNL1        0.0323
     38 H          -2.7927    2.2985   -2.1135 H       1  UNL1        0.0323
     39 H          -4.9277    1.4679   -1.1780 H       1  UNL1        0.0814
     40 H          -5.1769    2.9993   -2.0498 H       1  UNL1        0.0814
     41 H          -4.9175    1.4476    1.2338 H       1  UNL1        0.0814
     42 H          -5.1591    2.9643    2.1333 H       1  UNL1        0.0814
     43 H          -2.7744    2.2626    2.1649 H       1  UNL1        0.0323
     44 H          -2.9837    3.8088    1.3068 H       1  UNL1        0.0323
     45 H          -7.1241    3.5884    0.9257 H       1  UNL1        0.0777
     46 H          -7.1284    3.5380   -0.8536 H       1  UNL1        0.0777
     47 H          -7.0491    2.0242    0.0795 H       1  UNL1        0.0777
     48 N          -5.2637    3.1709    0.0436 N.4     1  UNL1        0.2331
     49 H          -4.9985    4.1628    0.0507 H       1  UNL1        0.2030
@<TRIPOS>UNITY_ATOM_ATTR
48 1
charge 1
@<TRIPOS>BOND
     1     1     2    1
     2     1    24    1
     3     1    25    1
     4     1    26    1
     5     2     3    1
     6     2    27    1
     7     3     4    2
     8     3     5    2
     9     3     6    1
    10     6     7    1
    11     6    28    1
    12     6    29    1
    13     7     8    1
    14     7    30    1
    15     7    31    1
    16     8    13   ar
    17     8     9   ar
    18     9    10   ar
    19     9    32    1
    20    10    11   ar
    21    10    33    1
    22    11    16   ar
    23    11    12   ar
    24    12    13   ar
    25    12    14   ar
    26    13    34    1
    27    14    15   ar
    28    14    18    1
    29    15    16   ar
    30    15    35    1
    31    16    17    1
    32    18    22    1
    33    18    19    1
    34    18    36    1
    35    19    20    1
    36    19    37    1
    37    19    38    1
    38    20    39    1
    39    20    40    1
    40    20    48    1
    41    21    22    1
    42    21    41    1
    43    21    42    1
    44    21    48    1
    45    22    43    1
    46    22    44    1
    47    23    45    1
    48    23    46    1
    49    23    47    1
    50    23    48    1
    51    48    49    1
