@<TRIPOS>MOLECULE
ZINC00001139
 15 16 0 0 0
SMALL
GASTEIGER

@<TRIPOS>ATOM
      1 C           1.1711    2.0871    0.0021 C.ar    1  UNL1       -0.0398
      2 C          -0.0167    1.3814    0.0096 C.ar    1  UNL1       -0.0157
      3 C           0.0021   -0.0041    0.0020 C.ar    1  UNL1        0.1569
      4 C           1.2225   -0.6797   -0.0133 C.ar    1  UNL1        0.0887
      5 C           2.4104    0.0336   -0.0211 C.ar    1  UNL1       -0.0163
      6 C           2.3822    1.4160   -0.0136 C.ar    1  UNL1        0.0431
      7 CL          3.8688    2.3125   -0.0234 Cl      1  UNL1       -0.0835
      8 N           0.9237   -2.0420   -0.0170 N.ar    1  UNL1       -0.2880
      9 H           1.5648   -2.7698   -0.0265 H       1  UNL1        0.1721
     10 C          -0.4186   -2.1624   -0.0044 C.ar    1  UNL1        0.4186
     11 O          -1.0293   -3.2139   -0.0029 O.2     1  UNL1       -0.2229
     12 O          -0.9770   -0.9419    0.0071 O.2     1  UNL1       -0.4076
     13 H           1.1549    3.1669    0.0077 H       1  UNL1        0.0633
     14 H          -0.9589    1.9092    0.0170 H       1  UNL1        0.0655
     15 H           3.3556   -0.4887   -0.0325 H       1  UNL1        0.0654
@<TRIPOS>BOND
     1     1     6   ar
     2     1     2   ar
     3     1    13    1
     4     2     3   ar
     5     2    14    1
     6     3    12   ar
     7     3     4   ar
     8     4     5   ar
     9     4     8   ar
    10     5     6   ar
    11     5    15    1
    12     6     7    1
    13     8     9    1
    14     8    10   ar
    15    10    11    2
    16    10    12   ar
