@<TRIPOS>MOLECULE
ZINC03831283
 41 43 0 0 0
SMALL
GASTEIGER

@<TRIPOS>ATOM
      1 C           2.3420    9.6400    1.5519 C.3     1  UNL1       -0.0486
      2 C           3.1170   10.6516    0.7051 C.3     1  UNL1        0.0366
      3 CA          4.6077   10.7500    1.1487 C.3     1  UNL1        0.0807
      4 HA          5.0459   11.6622    0.7439 H       1  UNL1        0.0576
      5 N           5.3550    9.5929    0.6562 N.am    1  UNL1       -0.2761
      6 C           4.9524    9.1061   -0.6863 C.3     1  UNL1        0.1003
      7 H           5.7020    9.1337   -1.4772 H       1  UNL1        0.0640
      8 S           3.3939   10.0311   -1.0146 S.3     1  UNL1       -0.1275
      9 CA          4.7059    7.7466   -0.0163 C.3     1  UNL1        0.1278
     10 HA          5.3619    6.9550   -0.3784 H       1  UNL1        0.0622
     11 C           5.1808    8.3888    1.2704 C.2     1  UNL1        0.2401
     12 O           5.3419    7.9875    2.4035 O.2     1  UNL1       -0.2734
     13 N           3.2956    7.3508    0.0095 N.am    1  UNL1       -0.2989
     14 C           2.9617    6.0586    0.1973 C.2     1  UNL1        0.2513
     15 O           3.8288    5.2235    0.3448 O.2     1  UNL1       -0.2721
     16 C           1.5110    5.6514    0.2239 C.3     1  UNL1        0.1652
     17 O           1.4159    4.2413    0.4353 O.3     1  UNL1       -0.4828
     18 C           0.1670    3.7079    0.4859 C.ar    1  UNL1        0.1212
     19 C           0.0010    2.3455    0.6884 C.ar    1  UNL1       -0.0199
     20 C          -1.2696    1.8057    0.7390 C.ar    1  UNL1       -0.0583
     21 C          -2.3752    2.6211    0.5823 C.ar    1  UNL1       -0.0615
     22 C          -2.2126    3.9801    0.3861 C.ar    1  UNL1       -0.0583
     23 C          -0.9441    4.5248    0.3347 C.ar    1  UNL1       -0.0199
     24 C           4.6799   10.7877    2.6535 C.2     1  UNL1        0.0635
     25 O           5.4473   10.0617    3.2400 O.co2   1  UNL1       -0.5478
     26 C           2.4356   12.0215    0.7091 C.3     1  UNL1       -0.0486
     27 H           2.2593   10.0094    2.5740 H       1  UNL1        0.0244
     28 H           1.3449    9.5038    1.1331 H       1  UNL1        0.0244
     29 H           2.8695    8.6862    1.5517 H       1  UNL1        0.0244
     30 H           2.6021    8.0187   -0.1085 H       1  UNL1        0.1496
     31 H           1.0440    5.9086   -0.7268 H       1  UNL1        0.0795
     32 H           1.0014    6.1752    1.0325 H       1  UNL1        0.0795
     33 H           0.8643    1.7075    0.8060 H       1  UNL1        0.0654
     34 H          -1.3994    0.7452    0.8966 H       1  UNL1        0.0619
     35 H          -3.3676    2.1964    0.6174 H       1  UNL1        0.0618
     36 H          -3.0778    4.6155    0.2681 H       1  UNL1        0.0619
     37 H          -0.8175    5.5856    0.1766 H       1  UNL1        0.0654
     38 H           2.9557   12.6880    0.0210 H       1  UNL1        0.0244
     39 H           1.3978   11.9121    0.3943 H       1  UNL1        0.0244
     40 H           2.4679   12.4404    1.7149 H       1  UNL1        0.0244
     41 OXT         3.8916   11.6279    3.3424 O.co2   1  UNL1       -0.5478
@<TRIPOS>UNITY_ATOM_ATTR
41 1
charge -1
@<TRIPOS>BOND
     1     1     2    1
     2     1    27    1
     3     1    28    1
     4     1    29    1
     5     2     8    1
     6     2     3    1
     7     2    26    1
     8     3     4    1
     9     3     5    1
    10     3    24    1
    11     5    11   am
    12     5     6    1
    13     6     7    1
    14     6     8    1
    15     6     9    1
    16     9    10    1
    17     9    11    1
    18     9    13    1
    19    11    12    2
    20    13    14   am
    21    13    30    1
    22    14    15    2
    23    14    16    1
    24    16    17    1
    25    16    31    1
    26    16    32    1
    27    17    18    1
    28    18    23   ar
    29    18    19   ar
    30    19    20   ar
    31    19    33    1
    32    20    21   ar
    33    20    34    1
    34    21    22   ar
    35    21    35    1
    36    22    23   ar
    37    22    36    1
    38    23    37    1
    39    24    25   ar
    40    24    41   ar
    41    26    38    1
    42    26    39    1
    43    26    40    1
