@<TRIPOS>MOLECULE
ZINC03831024
 67 68 0 0 0
SMALL
GASTEIGER

@<TRIPOS>ATOM
      1 C           0.6155   -1.4134    1.2660 C.3     1  UNL1       -0.0245
      2 C           0.0341   -0.4007    0.2774 C.3     1  UNL1       -0.0345
      3 C          -2.1498   -0.3709    1.3226 C.3     1  UNL1       -0.0315
      4 C          -2.2875    1.1439    1.4879 C.3     1  UNL1       -0.0094
      5 C          -2.9900    1.4506    2.8120 C.3     1  UNL1       -0.0137
      6 C          -3.1277    2.9654    2.9773 C.3     1  UNL1        0.0930
      7 O          -3.7944    3.2565    4.2339 O.3     1  UNL1       -0.4612
      8 C          -3.9950    4.5549    4.5336 C.2     1  UNL1        0.3393
      9 O          -3.6230    5.4201    3.7659 O.2     1  UNL1       -0.2450
     10 C          -4.6660    4.9257    5.7934 C.ar    1  UNL1        0.0627
     11 C          -5.0997    3.9317    6.6749 C.ar    1  UNL1       -0.0441
     12 C          -5.7212    4.2801    7.8541 C.ar    1  UNL1       -0.0155
     13 C          -5.9287    5.6174    8.1645 C.ar    1  UNL1        0.1615
     14 C          -5.5039    6.6141    7.2870 C.ar    1  UNL1        0.1623
     15 C          -4.8749    6.2721    6.1058 C.ar    1  UNL1       -0.0023
     16 O          -5.7083    7.9231    7.5944 O.3     1  UNL1       -0.4914
     17 C          -5.2469    8.8910    6.6498 C.3     1  UNL1        0.0790
     18 O          -6.5464    5.9554    9.3255 O.3     1  UNL1       -0.4915
     19 C          -6.9559    4.8842   10.1782 C.3     1  UNL1        0.0790
     20 C          -1.6295   -2.0455   -0.3471 C.3     1  UNL1       -0.0197
     21 H          -1.3912   -2.7308    0.4664 H       1  UNL1        0.0852
     22 C          -3.0970   -2.2166   -0.7447 C.3     1  UNL1       -0.0213
     23 C          -0.7360   -2.3522   -1.5506 C.3     1  UNL1        0.0153
     24 C          -0.9041   -3.7966   -1.9459 C.ar    1  UNL1       -0.0418
     25 C          -0.1721   -4.7778   -1.3031 C.ar    1  UNL1       -0.0549
     26 C          -0.3286   -6.1032   -1.6598 C.ar    1  UNL1       -0.0197
     27 C          -1.2127   -6.4483   -2.6717 C.ar    1  UNL1        0.1201
     28 C          -1.9418   -5.4613   -3.3190 C.ar    1  UNL1       -0.0197
     29 C          -1.7859   -4.1379   -2.9548 C.ar    1  UNL1       -0.0549
     30 O          -1.3647   -7.7509   -3.0279 O.3     1  UNL1       -0.4951
     31 C          -0.5818   -8.7131   -2.3184 C.3     1  UNL1        0.0788
     32 H           1.6930   -1.2684    1.3431 H       1  UNL1        0.0281
     33 H           0.1584   -1.2691    2.2450 H       1  UNL1        0.0281
     34 H           0.4092   -2.4243    0.9142 H       1  UNL1        0.0281
     35 H           0.1718    0.6078    0.6672 H       1  UNL1        0.0812
     36 H           0.5459   -0.4931   -0.6805 H       1  UNL1        0.0812
     37 H          -3.1405   -0.8210    1.2591 H       1  UNL1        0.0814
     38 H          -1.6177   -0.7831    2.1799 H       1  UNL1        0.0814
     39 H          -1.2980    1.6009    1.4872 H       1  UNL1        0.0318
     40 H          -2.8747    1.5475    0.6630 H       1  UNL1        0.0318
     41 H          -3.9796    0.9936    2.8127 H       1  UNL1        0.0300
     42 H          -2.4028    1.0470    3.6369 H       1  UNL1        0.0300
     43 H          -2.1382    3.4224    2.9766 H       1  UNL1        0.0697
     44 H          -3.7149    3.3690    2.1525 H       1  UNL1        0.0697
     45 H          -4.9439    2.8905    6.4337 H       1  UNL1        0.0627
     46 H          -6.0518    3.5110    8.5365 H       1  UNL1        0.0655
     47 H          -4.5457    7.0432    5.4251 H       1  UNL1        0.0663
     48 H          -5.4720    9.8925    7.0164 H       1  UNL1        0.0660
     49 H          -4.1700    8.7857    6.5183 H       1  UNL1        0.0660
     50 H          -5.7467    8.7330    5.6941 H       1  UNL1        0.0660
     51 H          -7.6611    4.2456    9.6463 H       1  UNL1        0.0660
     52 H          -6.0841    4.2986   10.4699 H       1  UNL1        0.0660
     53 H          -7.4346    5.2914   11.0687 H       1  UNL1        0.0660
     54 H          -3.2676   -3.2422   -1.0719 H       1  UNL1        0.0284
     55 H          -3.7336   -1.9981    0.1127 H       1  UNL1        0.0284
     56 H          -3.3353   -1.5313   -1.5581 H       1  UNL1        0.0284
     57 H          -1.0190   -1.7116   -2.3858 H       1  UNL1        0.0368
     58 H           0.3052   -2.1665   -1.2868 H       1  UNL1        0.0368
     59 H           0.5192   -4.5082   -0.5184 H       1  UNL1        0.0621
     60 H           0.2401   -6.8697   -1.1543 H       1  UNL1        0.0654
     61 H          -2.6310   -5.7275   -4.1068 H       1  UNL1        0.0654
     62 H          -2.3535   -3.3693   -3.4582 H       1  UNL1        0.0621
     63 H           0.4768   -8.4932   -2.4566 H       1  UNL1        0.0660
     64 H          -0.8264   -8.6692   -1.2571 H       1  UNL1        0.0660
     65 H          -0.7985   -9.7107   -2.7003 H       1  UNL1        0.0660
     66 N          -1.4092   -0.6456    0.0733 N.4     1  UNL1        0.2372
     67 H          -1.7531   -0.0182   -0.6631 H       1  UNL1        0.2036
@<TRIPOS>UNITY_ATOM_ATTR
66 1
charge 1
@<TRIPOS>BOND
     1     1     2    1
     2     1    32    1
     3     1    33    1
     4     1    34    1
     5     2    35    1
     6     2    36    1
     7     2    66    1
     8     3     4    1
     9     3    37    1
    10     3    38    1
    11     3    66    1
    12     4     5    1
    13     4    39    1
    14     4    40    1
    15     5     6    1
    16     5    41    1
    17     5    42    1
    18     6     7    1
    19     6    43    1
    20     6    44    1
    21     7     8    1
    22     8     9    2
    23     8    10    1
    24    10    15   ar
    25    10    11   ar
    26    11    12   ar
    27    11    45    1
    28    12    13   ar
    29    12    46    1
    30    13    14   ar
    31    13    18    1
    32    14    15   ar
    33    14    16    1
    34    15    47    1
    35    16    17    1
    36    17    48    1
    37    17    49    1
    38    17    50    1
    39    18    19    1
    40    19    51    1
    41    19    52    1
    42    19    53    1
    43    20    21    1
    44    20    22    1
    45    20    23    1
    46    20    66    1
    47    22    54    1
    48    22    55    1
    49    22    56    1
    50    23    24    1
    51    23    57    1
    52    23    58    1
    53    24    29   ar
    54    24    25   ar
    55    25    26   ar
    56    25    59    1
    57    26    27   ar
    58    26    60    1
    59    27    28   ar
    60    27    30    1
    61    28    29   ar
    62    28    61    1
    63    29    62    1
    64    30    31    1
    65    31    63    1
    66    31    64    1
    67    31    65    1
    68    66    67    1
