@<TRIPOS>MOLECULE
ZINC02545102
 31 32 0 0 0
SMALL
GASTEIGER

@<TRIPOS>ATOM
      1 C5M         1.1468    3.5557    0.0097 C.3     1    T1       -0.0332
      2 C5          1.1473    2.0487    0.0021 C.ar    1    T1        0.0302
      3 C6         -0.0165    1.3641    0.0095 C.ar    1    T1        0.0199
      4 N1          0.0021   -0.0041    0.0020 N.ar    1    T1       -0.2737
      5 C2          1.1690   -0.6735   -0.0123 C.ar    1    T1        0.3313
      6 O2          1.1625   -1.8893   -0.0183 O.2     1    T1       -0.2464
      7 N3          2.3436   -0.0163   -0.0204 N.ar    1    T1       -0.2747
      8 H3          3.2015   -0.5299   -0.0314 H       1    T1        0.1734
      9 C4          2.3681    1.3318   -0.0138 C.ar    1    T1        0.2568
     10 O4          3.4303    1.9273   -0.0208 O.2     1    T1       -0.2674
     11 C1*        -1.2606   -0.7469    0.0101 C.3     1    T1        0.1422
     12 H1*        -2.1010   -0.0621    0.1234 H       1    T1        0.0840
     13 C2*        -1.4091   -1.5693   -1.2947 C.3     1    T1        0.0214
     14 C3*        -2.3697   -2.6966   -0.8236 C.3     1    T1        0.0876
     15 H3*        -3.4085   -2.3713   -0.8789 H       1    T1        0.0621
     16 C4*        -1.9368   -2.9062    0.6434 C.3     1    T1        0.1100
     17 H4*        -1.2618   -3.7593    0.7115 H       1    T1        0.0646
     18 O4*        -1.2616   -1.7170    1.0695 O.3     1    T1       -0.3483
     19 C5*        -3.1673   -3.1468    1.5202 C.3     1    T1        0.0729
     20 O5*        -2.7506   -3.4462    2.8540 O.3     1    T1       -0.3924
     21 O3*        -2.1707   -3.8877   -1.5877 O.3     1    T1       -0.3890
     22 H5M1        1.1563    3.9138    1.0391 H       1    T1        0.0280
     23 H5M2        2.0318    3.9219   -0.5106 H       1    T1        0.0280
     24 H5M3        0.2519    3.9213   -0.4939 H       1    T1        0.0280
     25 H6         -0.9576    1.8939    0.0169 H       1    T1        0.0816
     26 H2*1       -1.8607   -0.9717   -2.0865 H       1    T1        0.0335
     27 H2*2       -0.4501   -1.9786   -1.6123 H       1    T1        0.0335
     28 H5*1       -3.7898   -2.2521    1.5262 H       1    T1        0.0584
     29 H5*2       -3.7393   -3.9847    1.1216 H       1    T1        0.0584
     30 H5*        -3.4806   -3.6105    3.4665 H       1    T1        0.2095
     31 H3*        -2.4278   -3.8068   -2.5163 H       1    T1        0.2099
@<TRIPOS>BOND
     1     1     2    1
     2     1    22    1
     3     1    23    1
     4     1    24    1
     5     2     9   ar
     6     2     3   ar
     7     3     4   ar
     8     3    25    1
     9     4     5   ar
    10     4    11    1
    11     5     6    2
    12     5     7   ar
    13     7     8    1
    14     7     9   ar
    15     9    10    2
    16    11    12    1
    17    11    18    1
    18    11    13    1
    19    13    14    1
    20    13    26    1
    21    13    27    1
    22    14    15    1
    23    14    16    1
    24    14    21    1
    25    16    17    1
    26    16    18    1
    27    16    19    1
    28    19    20    1
    29    19    28    1
    30    19    29    1
    31    20    30    1
    32    21    31    1
