@<TRIPOS>MOLECULE
ZINC00020260
 54 56 0 0 0
SMALL
GASTEIGER

@<TRIPOS>ATOM
      1 C          -0.9720    0.7151   -2.3261 C.3     1  UNL1        0.0693
      2 N          -0.7436    1.5828   -1.1680 N.pl3   1  UNL1       -0.2274
      3 C          -0.0127    1.0858    0.0080 C.3     1  UNL1        0.0836
      4 C          -0.7524    1.5915    1.2560 C.3     1  UNL1        0.0209
      5 C          -0.7857    3.1212    1.2097 C.3     1  UNL1        0.0876
      6 C          -1.2062    2.8719   -1.1602 C.2     1  UNL1        0.2784
      7 C          -1.6937    3.4746   -2.4525 C.3     1  UNL1        0.1902
      8 O          -2.1347    4.8374   -2.2149 O.3     1  UNL1       -0.4501
      9 C          -2.6018    5.5199   -3.2722 C.2     1  UNL1        0.3446
     10 O          -2.6408    4.9958   -4.3602 O.2     1  UNL1       -0.2472
     11 C          -3.0775    6.9397   -3.1023 C.3     1  UNL1        0.1902
     12 C          -1.9023    7.8781   -3.1984 C.ar    1  UNL1       -0.0051
     13 C          -1.5253    8.3902   -4.4258 C.ar    1  UNL1       -0.0553
     14 C          -0.4502    9.2548   -4.5133 C.ar    1  UNL1       -0.0614
     15 C           0.2542    9.5991   -3.3748 C.ar    1  UNL1       -0.0617
     16 C          -0.1196    9.0829   -2.1482 C.ar    1  UNL1       -0.0614
     17 C          -1.1978    8.2224   -2.0599 C.ar    1  UNL1       -0.0553
     18 C          -4.0882    7.2739   -4.2012 C.3     1  UNL1        0.0026
     19 C          -4.5712    8.7154   -4.0286 C.3     1  UNL1       -0.0467
     20 C          -5.5819    9.0496   -5.1276 C.3     1  UNL1       -0.0527
     21 C          -6.7751    8.0968   -5.0300 C.3     1  UNL1       -0.0530
     22 C          -6.2921    6.6553   -5.2025 C.3     1  UNL1       -0.0527
     23 C          -5.2814    6.3211   -4.1036 C.3     1  UNL1       -0.0467
     24 O          -3.6990    7.0840   -1.8236 O.3     1  UNL1       -0.3730
     25 H          -1.9129    0.1797   -2.1991 H       1  UNL1        0.0689
     26 H          -1.0182    1.3213   -3.2308 H       1  UNL1        0.0689
     27 H          -0.1548   -0.0013   -2.4102 H       1  UNL1        0.0689
     28 H           0.0021   -0.0041    0.0020 H       1  UNL1        0.0727
     29 H           1.0072    1.4703    0.0003 H       1  UNL1        0.0727
     30 H          -1.7707    1.2029    1.2620 H       1  UNL1        0.0340
     31 H          -0.2277    1.2616    2.1527 H       1  UNL1        0.0340
     32 H           0.2157    3.5072    1.4001 H       1  UNL1        0.0745
     33 H          -1.4646    3.4897    1.9786 H       1  UNL1        0.0745
     34 H          -0.8829    3.4769   -3.1810 H       1  UNL1        0.0824
     35 H          -2.5260    2.8852   -2.8371 H       1  UNL1        0.0824
     36 H          -2.0729    8.1177   -5.3159 H       1  UNL1        0.0621
     37 H          -0.1580    9.6578   -5.4717 H       1  UNL1        0.0618
     38 H           1.0969   10.2712   -3.4438 H       1  UNL1        0.0618
     39 H           0.4311    9.3517   -1.2588 H       1  UNL1        0.0618
     40 H          -1.4896    7.8189   -1.1016 H       1  UNL1        0.0621
     41 H          -3.6142    7.1638   -5.1765 H       1  UNL1        0.0337
     42 H          -5.0452    8.8255   -3.0533 H       1  UNL1        0.0269
     43 H          -3.7212    9.3942   -4.0982 H       1  UNL1        0.0269
     44 H          -5.1079    8.9395   -6.1029 H       1  UNL1        0.0265
     45 H          -5.9260   10.0765   -5.0046 H       1  UNL1        0.0265
     46 H          -7.4951    8.3349   -5.8129 H       1  UNL1        0.0265
     47 H          -7.2491    8.2069   -4.0547 H       1  UNL1        0.0265
     48 H          -5.8181    6.5453   -6.1779 H       1  UNL1        0.0265
     49 H          -7.1421    5.9766   -5.1330 H       1  UNL1        0.0265
     50 H          -4.9373    5.2942   -4.2265 H       1  UNL1        0.0269
     51 H          -5.7554    6.4312   -3.1283 H       1  UNL1        0.0269
     52 H          -4.4649    6.5087   -1.6914 H       1  UNL1        0.2113
     53 N          -1.2754    3.6756   -0.1057 N.2     1  UNL1       -0.2763
     54 H          -1.6452    4.6304   -0.1816 H       1  UNL1        0.3036
@<TRIPOS>UNITY_ATOM_ATTR
53 1
charge 1
@<TRIPOS>BOND
     1     1     2    1
     2     1    25    1
     3     1    26    1
     4     1    27    1
     5     2     6    1
     6     2     3    1
     7     3     4    1
     8     3    28    1
     9     3    29    1
    10     4     5    1
    11     4    30    1
    12     4    31    1
    13     5    32    1
    14     5    33    1
    15     5    53    1
    16     6     7    1
    17     6    53    2
    18     7     8    1
    19     7    34    1
    20     7    35    1
    21     8     9    1
    22     9    10    2
    23     9    11    1
    24    11    12    1
    25    11    18    1
    26    11    24    1
    27    12    17   ar
    28    12    13   ar
    29    13    14   ar
    30    13    36    1
    31    14    15   ar
    32    14    37    1
    33    15    16   ar
    34    15    38    1
    35    16    17   ar
    36    16    39    1
    37    17    40    1
    38    18    23    1
    39    18    19    1
    40    18    41    1
    41    19    20    1
    42    19    42    1
    43    19    43    1
    44    20    21    1
    45    20    44    1
    46    20    45    1
    47    21    22    1
    48    21    46    1
    49    21    47    1
    50    22    23    1
    51    22    48    1
    52    22    49    1
    53    23    50    1
    54    23    51    1
    55    24    52    1
    56    53    54    1
