@<TRIPOS>MOLECULE
ZINC01532604
 34 33 0 0 0
SMALL
GASTEIGER

@<TRIPOS>ATOM
      1 C           4.6335    5.0469   -0.3215 C.3     1  UNL1        0.0100
      2 C           3.2385    4.5067   -0.0006 C.3     1  UNL1        0.0100
      3 C           2.0996    2.5476    0.8524 C.3     1  UNL1        0.0092
      4 C           2.3064    1.1079    1.2467 C.2     1  UNL1        0.0863
      5 O           3.3531    0.5578    0.9982 O.co2   1  UNL1       -0.5444
      6 C           3.5272    2.3661   -1.0948 C.3     1  UNL1        0.0092
      7 C           2.3419    2.5957   -1.9966 C.2     1  UNL1        0.0863
      8 O           1.4325    3.3023   -1.6310 O.co2   1  UNL1       -0.5444
      9 C           5.9427    7.0796   -0.4502 C.3     1  UNL1        0.0092
     10 C           6.5931    6.9946    0.9066 C.2     1  UNL1        0.0863
     11 O           5.9837    6.5296    1.8406 O.co2   1  UNL1       -0.5444
     12 C           3.7687    6.9708   -1.5104 C.3     1  UNL1        0.0092
     13 C           3.4443    8.4323   -1.3374 C.2     1  UNL1        0.0863
     14 O           3.8110    9.0193   -0.3471 O.co2   1  UNL1       -0.5444
     15 H           5.3313    4.7356    0.4558 H       1  UNL1        0.0868
     16 H           4.9626    4.6545   -1.2837 H       1  UNL1        0.0868
     17 H           2.5619    4.7355   -0.8241 H       1  UNL1        0.0868
     18 H           2.8695    4.9729    0.9129 H       1  UNL1        0.0868
     19 H           1.2521    2.6195    0.1707 H       1  UNL1        0.0879
     20 H           1.9008    3.1434    1.7433 H       1  UNL1        0.0879
     21 H           4.4261    2.7606   -1.5687 H       1  UNL1        0.0879
     22 H           3.6484    1.2972   -0.9190 H       1  UNL1        0.0879
     23 H           6.5345    6.5175   -1.1726 H       1  UNL1        0.0879
     24 H           5.8852    8.1228   -0.7608 H       1  UNL1        0.0879
     25 H           4.3196    6.8285   -2.4402 H       1  UNL1        0.0879
     26 H           2.8438    6.3949   -1.5443 H       1  UNL1        0.0879
     27 N           3.3304    3.0455    0.2030 N.4     1  UNL1        0.2472
     28 H           4.1332    2.8433    0.8104 H       1  UNL1        0.2043
     29 O           1.3278    0.4367    1.8741 O.co2   1  UNL1       -0.5444
     30 O           2.2963    2.0152   -3.2060 O.co2   1  UNL1       -0.5444
     31 N           4.5765    6.5235   -0.3563 N.4     1  UNL1        0.2472
     32 H           4.1379    6.8608    0.5086 H       1  UNL1        0.2043
     33 O           7.8493    7.4356    1.0775 O.co2   1  UNL1       -0.5444
     34 O           2.7481    9.0818   -2.2835 O.co2   1  UNL1       -0.5444
@<TRIPOS>UNITY_ATOM_ATTR
27 1
charge 1
29 1
charge -1
30 1
charge -1
31 1
charge 1
33 1
charge -1
34 1
charge -1
@<TRIPOS>BOND
     1     1     2    1
     2     1    15    1
     3     1    16    1
     4     1    31    1
     5     2    17    1
     6     2    18    1
     7     2    27    1
     8     3     4    1
     9     3    19    1
    10     3    20    1
    11     3    27    1
    12     4     5   ar
    13     4    29   ar
    14     6     7    1
    15     6    21    1
    16     6    22    1
    17     6    27    1
    18     7     8   ar
    19     7    30   ar
    20     9    10    1
    21     9    23    1
    22     9    24    1
    23     9    31    1
    24    10    11   ar
    25    10    33   ar
    26    12    13    1
    27    12    25    1
    28    12    26    1
    29    12    31    1
    30    13    14   ar
    31    13    34   ar
    32    27    28    1
    33    31    32    1
