@<TRIPOS>MOLECULE
ZINC03830809
 60 63 0 0 0
SMALL
GASTEIGER

@<TRIPOS>ATOM
      1 C          -2.3699    6.0329  -10.6819 C.3     1  UNL1        0.0333
      2 C          -1.4106    5.3022   -9.7782 C.2     1  UNL1        0.3045
      3 O          -0.2457    5.6218   -9.7488 O.2     1  UNL1       -0.2511
      4 O          -1.8501    4.2961   -9.0059 O.3     1  UNL1       -0.4574
      5 C          -0.8699    3.6372   -8.1601 C.3     1  UNL1        0.1215
      6 H           0.0964    3.6595   -8.6664 H       1  UNL1        0.0779
      7 C          -1.2860    2.1876   -7.9694 C.3     1  UNL1       -0.0114
      8 C          -0.8023    1.6442   -6.6245 C.3     1  UNL1       -0.0426
      9 C          -1.4347    2.4872   -5.5127 C.3     1  UNL1       -0.0166
     10 H          -2.5244    2.4338   -5.6058 H       1  UNL1        0.0348
     11 C          -1.0230    1.9788   -4.1451 C.3     1  UNL1       -0.0314
     12 H          -0.7547    0.9131   -4.2975 H       1  UNL1        0.0309
     13 C          -2.2011    1.9541   -3.1818 C.3     1  UNL1       -0.0487
     14 C          -1.7975    1.2484   -1.8724 C.3     1  UNL1       -0.0425
     15 C          -0.6557    2.0289   -1.2661 C.3     1  UNL1        0.0223
     16 C           0.5418    2.0339   -2.2362 C.3     1  UNL1       -0.0278
     17 H           0.8694    0.9811   -2.4081 H       1  UNL1        0.0310
     18 C           0.2233    2.6366   -3.5795 C.3     1  UNL1       -0.0339
     19 H           1.0604    2.3142   -4.2617 H       1  UNL1        0.0307
     20 C           0.2606    4.1456   -3.6006 C.3     1  UNL1       -0.0460
     21 C          -0.8387    4.7626   -4.4602 C.3     1  UNL1       -0.0311
     22 C          -0.9939    3.9166   -5.7011 C.2     1  UNL1       -0.0667
     23 C          -0.7547    4.3967   -6.8803 C.2     1  UNL1       -0.0445
     24 C           1.6243    2.7102   -1.3851 C.3     1  UNL1       -0.0447
     25 C           1.4279    2.0269   -0.0007 C.3     1  UNL1       -0.0005
     26 C          -0.0178    1.4625    0.0101 C.3     1  UNL1        0.1784
     27 C           0.0021   -0.0041    0.0020 C.1     1  UNL1       -0.0576
     28 C           0.0180   -1.1779   -0.0044 C.1     1  UNL1       -0.1152
     29 O          -0.7355    1.9539    1.1736 O.3     1  UNL1       -0.4447
     30 C          -0.2633    1.5945    2.3775 C.2     1  UNL1        0.3054
     31 O           0.7170    0.8926    2.4570 O.2     1  UNL1       -0.2511
     32 C          -0.9558    2.0663    3.6301 C.3     1  UNL1        0.0333
     33 C          -1.1429    3.4393   -0.9174 C.3     1  UNL1       -0.0547
     34 H          -3.3675    5.6075  -10.5728 H       1  UNL1        0.0342
     35 H          -2.3932    7.0881  -10.4097 H       1  UNL1        0.0342
     36 H          -2.0429    5.9317  -11.7167 H       1  UNL1        0.0342
     37 H          -0.8608    1.5841   -8.7722 H       1  UNL1        0.0304
     38 H          -2.3738    2.1186   -8.0116 H       1  UNL1        0.0304
     39 H           0.2829    1.7156   -6.5675 H       1  UNL1        0.0272
     40 H          -1.1107    0.6049   -6.5163 H       1  UNL1        0.0272
     41 H          -2.5571    2.9581   -2.9950 H       1  UNL1        0.0268
     42 H          -3.0140    1.3813   -3.6440 H       1  UNL1        0.0268
     43 H          -2.6467    1.2321   -1.1883 H       1  UNL1        0.0272
     44 H          -1.4925    0.2278   -2.1068 H       1  UNL1        0.0272
     45 H           0.2441    4.5797   -2.6135 H       1  UNL1        0.0271
     46 H           1.2238    4.4488   -4.0528 H       1  UNL1        0.0271
     47 H          -1.7738    4.7790   -3.9048 H       1  UNL1        0.0310
     48 H          -0.5559    5.7762   -4.7398 H       1  UNL1        0.0310
     49 H          -0.4489    5.4303   -6.9433 H       1  UNL1        0.0608
     50 H           1.4799    3.7827   -1.3182 H       1  UNL1        0.0270
     51 H           2.6168    2.4839   -1.7809 H       1  UNL1        0.0270
     52 H           1.5522    2.7550    0.7985 H       1  UNL1        0.0314
     53 H           2.1440    1.2133    0.1151 H       1  UNL1        0.0314
     54 H           0.0322   -2.2278   -0.0102 H       1  UNL1        0.1229
     55 H          -1.8128    2.6836    3.3609 H       1  UNL1        0.0342
     56 H          -1.2951    1.2042    4.2044 H       1  UNL1        0.0342
     57 H          -0.2604    2.6523    4.2310 H       1  UNL1        0.0342
     58 H          -0.3002    4.0408   -0.5763 H       1  UNL1        0.0237
     59 H          -1.5841    3.9001   -1.8011 H       1  UNL1        0.0237
     60 H          -1.8907    3.3802   -0.1267 H       1  UNL1        0.0237
@<TRIPOS>BOND
     1     1     2    1
     2     1    34    1
     3     1    35    1
     4     1    36    1
     5     2     3    2
     6     2     4    1
     7     4     5    1
     8     5     6    1
     9     5    23    1
    10     5     7    1
    11     7     8    1
    12     7    37    1
    13     7    38    1
    14     8     9    1
    15     8    39    1
    16     8    40    1
    17     9    10    1
    18     9    22    1
    19     9    11    1
    20    11    12    1
    21    11    18    1
    22    11    13    1
    23    13    14    1
    24    13    41    1
    25    13    42    1
    26    14    15    1
    27    14    43    1
    28    14    44    1
    29    15    26    1
    30    15    16    1
    31    15    33    1
    32    16    17    1
    33    16    18    1
    34    16    24    1
    35    18    19    1
    36    18    20    1
    37    20    21    1
    38    20    45    1
    39    20    46    1
    40    21    22    1
    41    21    47    1
    42    21    48    1
    43    22    23    2
    44    23    49    1
    45    24    25    1
    46    24    50    1
    47    24    51    1
    48    25    26    1
    49    25    52    1
    50    25    53    1
    51    26    27    1
    52    26    29    1
    53    27    28    3
    54    28    54    1
    55    29    30    1
    56    30    31    2
    57    30    32    1
    58    32    55    1
    59    32    56    1
    60    32    57    1
    61    33    58    1
    62    33    59    1
    63    33    60    1
