@<TRIPOS>MOLECULE
ZINC00608240
 63 66 0 0 0
SMALL
GASTEIGER

@<TRIPOS>ATOM
      1 C           0.4506    1.4291    0.1721 C.3     1  UNL1       -0.0582
      2 C           1.0046    1.0470    1.5461 C.3     1  UNL1        0.0076
      3 C           0.0942    1.5819    2.6214 C.2     1  UNL1        0.1630
      4 O          -0.9002    2.2075    2.3184 O.2     1  UNL1       -0.2921
      5 C           0.4103    1.3463    4.0339 C.ar    1  UNL1        0.0192
      6 C           1.5579    0.6243    4.3854 C.ar    1  UNL1       -0.0501
      7 C           1.8499    0.4095    5.7121 C.ar    1  UNL1       -0.0455
      8 C           1.0104    0.9035    6.7078 C.ar    1  UNL1        0.0341
      9 C          -0.1391    1.6214    6.3695 C.ar    1  UNL1        0.0485
     10 C          -0.4317    1.8478    5.0349 C.ar    1  UNL1       -0.0288
     11 N          -1.0050    2.1214    7.3388 N.pl3   1  UNL1       -0.2981
     12 C          -0.6508    2.4051    8.6543 C.ar    1  UNL1        0.0479
     13 C          -1.4080    3.3288    9.3685 C.ar    1  UNL1       -0.0393
     14 C          -1.0901    3.6273   10.6794 C.ar    1  UNL1       -0.0599
     15 C          -0.0156    3.0109   11.2926 C.ar    1  UNL1       -0.0606
     16 C           0.7448    2.0929   10.5922 C.ar    1  UNL1       -0.0462
     17 C           0.4315    1.7878    9.2751 C.ar    1  UNL1        0.0341
     18 S           1.4133    0.6172    8.3990 S.3     1  UNL1       -0.0857
     19 C          -2.3940    2.3677    6.9434 C.3     1  UNL1        0.0221
     20 C          -2.5295    3.7996    6.4217 C.3     1  UNL1        0.0036
     21 C          -3.9801    4.0568    6.0087 C.3     1  UNL1       -0.0300
     22 C          -3.8774    6.4076    6.5816 C.3     1  UNL1        0.0094
     23 C          -3.9431    7.8232    6.0036 C.3     1  UNL1        0.0095
     24 C          -5.4896    7.0583    4.3060 C.3     1  UNL1        0.0095
     25 C          -5.4239    5.6427    4.8839 C.3     1  UNL1        0.0094
     26 C          -5.3869    9.4091    4.8788 C.3     1  UNL1       -0.0078
     27 C          -6.8675    9.7450    4.6896 C.3     1  UNL1        0.0841
     28 O          -7.5245    9.7338    5.9586 O.3     1  UNL1       -0.3898
     29 H           1.1090    1.0422   -0.6056 H       1  UNL1        0.0234
     30 H          -0.5452    1.0027    0.0504 H       1  UNL1        0.0234
     31 H           0.3931    2.5147    0.0927 H       1  UNL1        0.0234
     32 H           1.0573    0.0511    1.6190 H       1  UNL1        0.0342
     33 H           2.0003    1.4734    1.6678 H       1  UNL1        0.0342
     34 H           2.2114    0.2380    3.6173 H       1  UNL1        0.0625
     35 H           2.7354   -0.1460    5.9836 H       1  UNL1        0.0629
     36 H          -1.3140    2.4092    4.7649 H       1  UNL1        0.0643
     37 H          -2.2488    3.8145    8.8956 H       1  UNL1        0.0636
     38 H          -1.6829    4.3451   11.2268 H       1  UNL1        0.0618
     39 H           0.2298    3.2464   12.3176 H       1  UNL1        0.0618
     40 H           1.5846    1.6117   11.0715 H       1  UNL1        0.0629
     41 H          -2.6781    1.6666    6.1586 H       1  UNL1        0.0470
     42 H          -3.0467    2.2318    7.8057 H       1  UNL1        0.0470
     43 H          -2.2453    4.5006    7.2065 H       1  UNL1        0.0332
     44 H          -1.8767    3.9354    5.5594 H       1  UNL1        0.0332
     45 H          -4.2642    3.3557    5.2240 H       1  UNL1        0.0815
     46 H          -4.6328    3.9210    6.8710 H       1  UNL1        0.0815
     47 H          -4.6421    6.2925    7.3497 H       1  UNL1        0.0868
     48 H          -2.8935    6.2388    7.0193 H       1  UNL1        0.0868
     49 H          -3.1608    7.9470    5.2548 H       1  UNL1        0.0868
     50 H          -3.7995    8.5496    6.8035 H       1  UNL1        0.0868
     51 H          -4.7248    7.1734    3.5378 H       1  UNL1        0.0868
     52 H          -6.4733    7.2269    3.8678 H       1  UNL1        0.0868
     53 H          -5.5675    4.9163    4.0840 H       1  UNL1        0.0868
     54 H          -6.2062    5.5189    5.6328 H       1  UNL1        0.0868
     55 H          -4.9463   10.1007    5.5969 H       1  UNL1        0.0837
     56 H          -4.8692    9.4984    3.9237 H       1  UNL1        0.0837
     57 H          -6.9613   10.7338    4.2406 H       1  UNL1        0.0610
     58 H          -7.3275    9.0040    4.0358 H       1  UNL1        0.0610
     59 H          -8.4684    9.9389    5.9147 H       1  UNL1        0.2096
     60 N          -4.0910    5.4361    5.4880 N.4     1  UNL1        0.2427
     61 H          -3.3726    5.5800    4.7687 H       1  UNL1        0.2038
     62 N          -5.2760    8.0298    5.3995 N.4     1  UNL1        0.2443
     63 H          -5.9944    7.8860    6.1188 H       1  UNL1        0.2038
@<TRIPOS>UNITY_ATOM_ATTR
60 1
charge 1
62 1
charge 1
@<TRIPOS>BOND
     1     1     2    1
     2     1    29    1
     3     1    30    1
     4     1    31    1
     5     2     3    1
     6     2    32    1
     7     2    33    1
     8     3     4    2
     9     3     5    1
    10     5    10   ar
    11     5     6   ar
    12     6     7   ar
    13     6    34    1
    14     7     8   ar
    15     7    35    1
    16     8    18    1
    17     8     9   ar
    18     9    10   ar
    19     9    11    1
    20    10    36    1
    21    11    12    1
    22    11    19    1
    23    12    17   ar
    24    12    13   ar
    25    13    14   ar
    26    13    37    1
    27    14    15   ar
    28    14    38    1
    29    15    16   ar
    30    15    39    1
    31    16    17   ar
    32    16    40    1
    33    17    18    1
    34    19    20    1
    35    19    41    1
    36    19    42    1
    37    20    21    1
    38    20    43    1
    39    20    44    1
    40    21    45    1
    41    21    46    1
    42    21    60    1
    43    22    23    1
    44    22    47    1
    45    22    48    1
    46    22    60    1
    47    23    49    1
    48    23    50    1
    49    23    62    1
    50    24    25    1
    51    24    51    1
    52    24    52    1
    53    24    62    1
    54    25    53    1
    55    25    54    1
    56    25    60    1
    57    26    27    1
    58    26    55    1
    59    26    56    1
    60    26    62    1
    61    27    28    1
    62    27    57    1
    63    27    58    1
    64    28    59    1
    65    60    61    1
    66    62    63    1
