@<TRIPOS>MOLECULE
ZINC00057341
 32 32 0 0 0
SMALL
GASTEIGER

@<TRIPOS>ATOM
      1 C           1.2479    2.0217    0.0010 C.3     1  UNL1        0.0790
      2 O          -0.0164    1.3557    0.0095 O.3     1  UNL1       -0.4915
      3 C           0.0021   -0.0041    0.0020 C.ar    1  UNL1        0.1615
      4 C           1.2104   -0.6820   -0.0189 C.ar    1  UNL1       -0.0163
      5 C           1.2274   -2.0643   -0.0211 C.ar    1  UNL1       -0.0581
      6 C           0.0406   -2.7733   -0.0131 C.ar    1  UNL1       -0.0581
      7 C          -1.1684   -2.1031    0.0020 C.ar    1  UNL1       -0.0163
      8 C          -1.1925   -0.7177    0.0096 C.ar    1  UNL1        0.1620
      9 O          -2.3810   -0.0568    0.0240 O.3     1  UNL1       -0.4856
     10 C          -3.5667   -0.8544    0.0311 C.3     1  UNL1        0.1188
     11 C          -4.7949    0.0579    0.0471 C.3     1  UNL1        0.1231
     12 H          -4.7272    0.7435    0.8918 H       1  UNL1        0.0662
     13 C          -6.0600   -0.7922    0.1804 C.3     1  UNL1        0.1231
     14 O          -7.2153    0.0770    0.3145 O.3     1  UNL1       -0.4478
     15 C          -8.4163   -0.5180    0.4426 C.2     1  UNL1        0.3977
     16 O          -8.4967   -1.7305    0.4424 O.2     1  UNL1       -0.2267
     17 N          -9.5292    0.2312    0.5712 N.am    1  UNL1       -0.2950
     18 O          -4.8492    0.8051   -1.1698 O.3     1  UNL1       -0.3850
     19 H           1.8173    1.7317    0.8840 H       1  UNL1        0.0660
     20 H           1.8003    1.7413   -0.8958 H       1  UNL1        0.0660
     21 H           1.0905    3.1003    0.0083 H       1  UNL1        0.0660
     22 H           2.1389   -0.1305   -0.0297 H       1  UNL1        0.0655
     23 H           2.1699   -2.5915   -0.0333 H       1  UNL1        0.0619
     24 H           0.0580   -3.8532   -0.0191 H       1  UNL1        0.0619
     25 H          -2.0942   -2.6593    0.0075 H       1  UNL1        0.0655
     26 H          -3.5898   -1.4791   -0.8619 H       1  UNL1        0.0724
     27 H          -3.5732   -1.4880    0.9180 H       1  UNL1        0.0724
     28 H          -6.1746   -1.4146   -0.7071 H       1  UNL1        0.0725
     29 H          -5.9793   -1.4280    1.0621 H       1  UNL1        0.0725
     30 H          -9.4650    1.1990    0.5714 H       1  UNL1        0.1482
     31 H         -10.3944   -0.1975    0.6635 H       1  UNL1        0.1482
     32 H          -4.9104    0.2581   -1.9648 H       1  UNL1        0.2101
@<TRIPOS>BOND
     1     1     2    1
     2     1    19    1
     3     1    20    1
     4     1    21    1
     5     2     3    1
     6     3     8   ar
     7     3     4   ar
     8     4     5   ar
     9     4    22    1
    10     5     6   ar
    11     5    23    1
    12     6     7   ar
    13     6    24    1
    14     7     8   ar
    15     7    25    1
    16     8     9    1
    17     9    10    1
    18    10    11    1
    19    10    26    1
    20    10    27    1
    21    11    12    1
    22    11    13    1
    23    11    18    1
    24    13    14    1
    25    13    28    1
    26    13    29    1
    27    14    15    1
    28    15    16    2
    29    15    17   am
    30    17    30    1
    31    17    31    1
    32    18    32    1
