@<TRIPOS>MOLECULE
ZINC03831154
 56 57 0 0 0
SMALL
GASTEIGER

@<TRIPOS>ATOM
      1 C          -4.2747    3.7038   -0.2575 C.3     1  UNL1       -0.0533
      2 C          -4.4943    2.7327    0.9043 C.3     1  UNL1        0.0423
      3 H          -5.1611    1.9311    0.5867 H       1  UNL1        0.0400
      4 C          -5.1209    3.4807    2.0827 C.3     1  UNL1        0.0118
      5 S          -6.7736    4.0569    1.6215 S.3     1  UNL1       -0.0855
      6 C          -7.2332    4.8360    3.0750 C.2     1  UNL1        0.2092
      7 O          -6.4716    4.8567    4.0192 O.2     1  UNL1       -0.2832
      8 C          -8.5838    5.4961    3.1816 C.3     1  UNL1        0.0889
      9 H          -8.6600    6.2130    2.4886 H       1  UNL1        0.0583
     10 C          -9.6804    4.4527    2.9588 C.3     1  UNL1       -0.0388
     11 N          -8.7349    6.0865    4.5139 N.am    1  UNL1       -0.3048
     12 C          -9.5779    7.1213    4.7006 C.2     1  UNL1        0.2167
     13 O         -10.2113    7.5638    3.7658 O.2     1  UNL1       -0.2755
     14 C          -9.7334    7.7287    6.0710 C.3     1  UNL1        0.0356
     15 C         -10.2347    6.6627    7.0474 C.3     1  UNL1       -0.0419
     16 C         -10.3926    7.2793    8.4387 C.3     1  UNL1       -0.0524
     17 C         -11.4011    8.4281    8.3760 C.3     1  UNL1       -0.0530
     18 C         -10.8998    9.4941    7.3996 C.3     1  UNL1       -0.0524
     19 C         -10.7419    8.8775    6.0083 C.3     1  UNL1       -0.0419
     20 C          -3.1713    2.1478    1.3269 C.2     1  UNL1        0.2197
     21 O          -2.6106    2.5685    2.3166 O.2     1  UNL1       -0.2753
     22 N          -2.6111    1.1570    0.6050 N.am    1  UNL1       -0.2930
     23 C          -3.2361    0.4684   -0.5390 C.3     1  UNL1        0.0154
     24 C          -2.0485   -0.0825   -1.3671 C.3     1  UNL1       -0.0351
     25 C          -1.0559   -0.4988   -0.2495 C.3     1  UNL1       -0.0276
     26 C          -1.2716    0.5824    0.8303 C.3     1  UNL1        0.0655
     27 H          -0.5127    1.3589    0.7343 H       1  UNL1        0.0562
     28 C          -1.2010   -0.0406    2.2007 C.2     1  UNL1        0.0622
     29 O          -2.1610    0.0006    2.9333 O.co2   1  UNL1       -0.5479
     30 H          -3.7054    3.2074   -1.0433 H       1  UNL1        0.0237
     31 H          -5.2396    4.0213   -0.6530 H       1  UNL1        0.0237
     32 H          -3.7228    4.5746    0.0962 H       1  UNL1        0.0237
     33 H          -5.1956    2.8112    2.9397 H       1  UNL1        0.0388
     34 H          -4.4975    4.3360    2.3431 H       1  UNL1        0.0388
     35 H          -9.5973    3.6712    3.7141 H       1  UNL1        0.0252
     36 H         -10.6572    4.9301    3.0359 H       1  UNL1        0.0252
     37 H          -9.5679    4.0134    1.9676 H       1  UNL1        0.0252
     38 H          -8.2283    5.7326    5.2615 H       1  UNL1        0.1494
     39 H          -8.7702    8.1089    6.4114 H       1  UNL1        0.0394
     40 H         -11.1979    6.2825    6.7071 H       1  UNL1        0.0272
     41 H          -9.5163    5.8442    7.0921 H       1  UNL1        0.0272
     42 H          -9.4294    7.6595    8.7791 H       1  UNL1        0.0265
     43 H         -10.7498    6.5199    9.1343 H       1  UNL1        0.0265
     44 H         -11.5136    8.8674    9.3672 H       1  UNL1        0.0265
     45 H         -12.3643    8.0479    8.0357 H       1  UNL1        0.0265
     46 H          -9.9366    9.8743    7.7400 H       1  UNL1        0.0265
     47 H         -11.6183   10.3126    7.3549 H       1  UNL1        0.0265
     48 H         -10.3847    9.6369    5.3127 H       1  UNL1        0.0272
     49 H         -11.7051    8.4973    5.6680 H       1  UNL1        0.0272
     50 H          -3.8187    1.1723   -1.1333 H       1  UNL1        0.0465
     51 H          -3.8685   -0.3489   -0.1926 H       1  UNL1        0.0465
     52 H          -1.6202    0.6942   -2.0006 H       1  UNL1        0.0281
     53 H          -2.3521   -0.9447   -1.9609 H       1  UNL1        0.0281
     54 H          -1.3044   -1.4865    0.1387 H       1  UNL1        0.0287
     55 H          -0.0301   -0.4773   -0.6172 H       1  UNL1        0.0287
     56 O          -0.0717   -0.6414    2.6074 O.co2   1  UNL1       -0.5479
@<TRIPOS>UNITY_ATOM_ATTR
56 1
charge -1
@<TRIPOS>BOND
     1     1     2    1
     2     1    30    1
     3     1    31    1
     4     1    32    1
     5     2     3    1
     6     2     4    1
     7     2    20    1
     8     4     5    1
     9     4    33    1
    10     4    34    1
    11     5     6    1
    12     6     7    2
    13     6     8    1
    14     8     9    1
    15     8    10    1
    16     8    11    1
    17    10    35    1
    18    10    36    1
    19    10    37    1
    20    11    12   am
    21    11    38    1
    22    12    13    2
    23    12    14    1
    24    14    19    1
    25    14    15    1
    26    14    39    1
    27    15    16    1
    28    15    40    1
    29    15    41    1
    30    16    17    1
    31    16    42    1
    32    16    43    1
    33    17    18    1
    34    17    44    1
    35    17    45    1
    36    18    19    1
    37    18    46    1
    38    18    47    1
    39    19    48    1
    40    19    49    1
    41    20    21    2
    42    20    22   am
    43    22    26    1
    44    22    23    1
    45    23    24    1
    46    23    50    1
    47    23    51    1
    48    24    25    1
    49    24    52    1
    50    24    53    1
    51    25    26    1
    52    25    54    1
    53    25    55    1
    54    26    27    1
    55    26    28    1
    56    28    29   ar
    57    28    56   ar
