@<TRIPOS>MOLECULE
ZINC11592646
 52 56 0 0 0
SMALL
GASTEIGER

@<TRIPOS>ATOM
      1 C           0.5611    3.7266    1.6701 C.3     1  UNL1       -0.0558
      2 C          -0.7907    3.1140    1.2985 C.3     1  UNL1        0.0111
      3 C          -0.8198    1.5997    1.5111 C.3     1  UNL1       -0.0435
      4 C          -0.0293    0.8676    0.4279 C.3     1  UNL1       -0.0485
      5 C          -0.6655    1.1961   -0.9238 C.3     1  UNL1       -0.0285
      6 H          -1.7328    0.9815   -0.8696 H       1  UNL1        0.0312
      7 C          -0.4787    2.6830   -1.1920 C.3     1  UNL1       -0.0337
      8 H          -0.9130    2.9227   -2.1625 H       1  UNL1        0.0307
      9 C          -1.2102    3.4910   -0.1341 C.3     1  UNL1       -0.0289
     10 H          -1.0217    4.5531   -0.2906 H       1  UNL1        0.0310
     11 C          -2.7272    3.2299   -0.1426 C.3     1  UNL1       -0.0458
     12 C          -3.1844    3.7400    1.2442 C.3     1  UNL1       -0.0118
     13 C          -1.9446    3.7003    2.1575 C.3     1  UNL1        0.1317
     14 C          -2.2008    2.8354    3.3208 C.1     1  UNL1       -0.0704
     15 C          -2.4051    2.1456    4.2485 C.1     1  UNL1       -0.1163
     16 O          -1.6119    5.0205    2.5915 O.3     1  UNL1       -0.3760
     17 C           0.9663    3.1105   -1.1803 C.3     1  UNL1       -0.0459
     18 C           1.9010    1.9975   -1.6280 C.3     1  UNL1       -0.0305
     19 C           1.1771    1.0515   -2.5561 C.2     1  UNL1       -0.0595
     20 C           1.6507    0.8585   -3.7880 C.2     1  UNL1       -0.0166
     21 C           0.8881   -0.0278   -4.6763 C.ar    1  UNL1        0.1633
     22 C          -0.4040   -0.3903   -4.3608 C.ar    1  UNL1        0.0195
     23 C          -0.7909   -1.2284   -5.3983 C.ar    1  UNL1        0.0738
     24 N           0.2328   -1.2974   -6.2140 N.ar    1  UNL1       -0.0858
     25 O           1.1732   -0.6288   -5.8256 O.2     1  UNL1       -0.3550
     26 C          -1.0964    0.1159   -3.1322 C.3     1  UNL1       -0.0132
     27 C          -0.0537    0.3588   -2.0386 C.3     1  UNL1       -0.0035
     28 C           0.3528   -0.9998   -1.4642 C.3     1  UNL1       -0.0553
     29 H           0.6497    4.7138    1.2166 H       1  UNL1        0.0236
     30 H           0.6334    3.8170    2.7540 H       1  UNL1        0.0236
     31 H           1.3633    3.0855    1.3047 H       1  UNL1        0.0236
     32 H          -1.8545    1.2575    1.4898 H       1  UNL1        0.0272
     33 H          -0.3889    1.3675    2.4851 H       1  UNL1        0.0272
     34 H          -0.0712   -0.2073    0.6037 H       1  UNL1        0.0268
     35 H           1.0079    1.2026    0.4384 H       1  UNL1        0.0268
     36 H          -3.2103    3.7962   -0.9389 H       1  UNL1        0.0269
     37 H          -2.9333    2.1647   -0.2474 H       1  UNL1        0.0269
     38 H          -3.5556    4.7616    1.1626 H       1  UNL1        0.0303
     39 H          -3.9631    3.0900    1.6431 H       1  UNL1        0.0303
     40 H          -2.5878    1.5287    5.0783 H       1  UNL1        0.1229
     41 H          -2.3053    5.4503    3.1107 H       1  UNL1        0.2114
     42 H           1.2425    3.4173   -0.1715 H       1  UNL1        0.0271
     43 H           1.0856    3.9612   -1.8512 H       1  UNL1        0.0271
     44 H           2.2529    1.4482   -0.7548 H       1  UNL1        0.0310
     45 H           2.7539    2.4326   -2.1490 H       1  UNL1        0.0310
     46 H           2.5606    1.3365   -4.1198 H       1  UNL1        0.0655
     47 H          -1.7440   -1.7238   -5.5106 H       1  UNL1        0.0867
     48 H          -1.8191   -0.6246   -2.7894 H       1  UNL1        0.0323
     49 H          -1.6094    1.0500   -3.3612 H       1  UNL1        0.0323
     50 H          -0.5272   -1.5029   -1.0635 H       1  UNL1        0.0238
     51 H           0.7930   -1.6105   -2.2525 H       1  UNL1        0.0238
     52 H           1.0823   -0.8539   -0.6675 H       1  UNL1        0.0238
@<TRIPOS>BOND
     1     1     2    1
     2     1    29    1
     3     1    30    1
     4     1    31    1
     5     2     9    1
     6     2    13    1
     7     2     3    1
     8     3     4    1
     9     3    32    1
    10     3    33    1
    11     4     5    1
    12     4    34    1
    13     4    35    1
    14     5     6    1
    15     5    27    1
    16     5     7    1
    17     7     8    1
    18     7     9    1
    19     7    17    1
    20     9    10    1
    21     9    11    1
    22    11    12    1
    23    11    36    1
    24    11    37    1
    25    12    13    1
    26    12    38    1
    27    12    39    1
    28    13    14    1
    29    13    16    1
    30    14    15    3
    31    15    40    1
    32    16    41    1
    33    17    18    1
    34    17    42    1
    35    17    43    1
    36    18    19    1
    37    18    44    1
    38    18    45    1
    39    19    27    1
    40    19    20    2
    41    20    21    1
    42    20    46    1
    43    21    25   ar
    44    21    22   ar
    45    22    23   ar
    46    22    26    1
    47    23    24   ar
    48    23    47    1
    49    24    25   ar
    50    26    27    1
    51    26    48    1
    52    26    49    1
    53    27    28    1
    54    28    50    1
    55    28    51    1
    56    28    52    1
