@<TRIPOS>MOLECULE
ZINC03831586
 49 51 0 0 0
SMALL
GASTEIGER

@<TRIPOS>ATOM
      1 C           0.9554    0.4492    2.0399 C.3     1  UNL1       -0.0561
      2 C          -0.0414   -0.5937    1.5303 C.3     1  UNL1        0.0124
      3 H          -0.8632   -0.6881    2.2401 H       1  UNL1        0.0365
      4 C           0.6633   -1.9437    1.3835 C.3     1  UNL1        0.0247
      5 N           1.1859   -2.3659    2.6854 N.pl3   1  UNL1       -0.2992
      6 C           2.5632   -2.4682    2.9139 C.ar    1  UNL1        0.0372
      7 C           3.3336   -1.3259    2.7113 C.ar    1  UNL1       -0.0401
      8 C           4.6887   -1.3406    2.9642 C.ar    1  UNL1       -0.0600
      9 C           5.2764   -2.5049    3.4248 C.ar    1  UNL1       -0.0614
     10 C           4.5225   -3.6272    3.6075 C.ar    1  UNL1       -0.0568
     11 C           3.1523   -3.6430    3.3370 C.ar    1  UNL1       -0.0257
     12 C           2.4859   -4.9871    3.5364 C.3     1  UNL1       -0.0219
     13 C           1.0063   -4.9693    3.1946 C.3     1  UNL1       -0.0219
     14 C           0.2479   -4.0134    4.0777 C.ar    1  UNL1       -0.0257
     15 C           0.3248   -2.6864    3.7420 C.ar    1  UNL1        0.0372
     16 C          -0.4112   -1.7368    4.4286 C.ar    1  UNL1       -0.0401
     17 C          -1.2080   -2.1509    5.4840 C.ar    1  UNL1       -0.0600
     18 C          -1.2594   -3.4864    5.8399 C.ar    1  UNL1       -0.0614
     19 C          -0.5265   -4.4311    5.1357 C.ar    1  UNL1       -0.0568
     20 C          -0.5894   -0.1540    0.1711 C.3     1  UNL1       -0.0283
     21 C          -2.7924   -1.0836    0.5524 C.3     1  UNL1       -0.0433
     22 C          -1.9292   -0.9007   -1.7024 C.3     1  UNL1       -0.0433
     23 H           0.4429    1.3998    2.1878 H       1  UNL1        0.0235
     24 H           1.3798    0.1142    2.9863 H       1  UNL1        0.0235
     25 H           1.7536    0.5767    1.3086 H       1  UNL1        0.0235
     26 H          -0.0464   -2.6863    1.0188 H       1  UNL1        0.0472
     27 H           1.4862   -1.8489    0.6751 H       1  UNL1        0.0472
     28 H           2.8657   -0.4210    2.3527 H       1  UNL1        0.0636
     29 H           5.2842   -0.4538    2.8048 H       1  UNL1        0.0618
     30 H           6.3338   -2.5238    3.6438 H       1  UNL1        0.0618
     31 H           5.0011   -4.5276    3.9633 H       1  UNL1        0.0621
     32 H           2.6022   -5.2858    4.5782 H       1  UNL1        0.0317
     33 H           2.9838   -5.7216    2.9033 H       1  UNL1        0.0317
     34 H           0.5990   -5.9722    3.3226 H       1  UNL1        0.0317
     35 H           0.8855   -4.6659    2.1547 H       1  UNL1        0.0317
     36 H          -0.3653   -0.6948    4.1481 H       1  UNL1        0.0636
     37 H          -1.7927   -1.4266    6.0317 H       1  UNL1        0.0618
     38 H          -1.8740   -3.7962    6.6721 H       1  UNL1        0.0618
     39 H          -0.5632   -5.4744    5.4126 H       1  UNL1        0.0621
     40 H           0.2263   -0.1021   -0.5500 H       1  UNL1        0.0817
     41 H          -1.0530    0.8279    0.2666 H       1  UNL1        0.0817
     42 H          -3.2722   -0.1099    0.4533 H       1  UNL1        0.0777
     43 H          -3.4849   -1.8637    0.2364 H       1  UNL1        0.0777
     44 H          -2.5121   -1.2462    1.5931 H       1  UNL1        0.0777
     45 H          -1.0322   -1.0062   -2.3126 H       1  UNL1        0.0777
     46 H          -2.6719   -1.6332   -2.0185 H       1  UNL1        0.0777
     47 H          -2.3349    0.1036   -1.8234 H       1  UNL1        0.0777
     48 N          -1.5787   -1.1513   -0.2885 N.4     1  UNL1        0.2311
     49 H          -1.1689   -2.0893   -0.2077 H       1  UNL1        0.2028
@<TRIPOS>UNITY_ATOM_ATTR
48 1
charge 1
@<TRIPOS>BOND
     1     1     2    1
     2     1    23    1
     3     1    24    1
     4     1    25    1
     5     2     3    1
     6     2     4    1
     7     2    20    1
     8     4     5    1
     9     4    26    1
    10     4    27    1
    11     5    15    1
    12     5     6    1
    13     6    11   ar
    14     6     7   ar
    15     7     8   ar
    16     7    28    1
    17     8     9   ar
    18     8    29    1
    19     9    10   ar
    20     9    30    1
    21    10    11   ar
    22    10    31    1
    23    11    12    1
    24    12    13    1
    25    12    32    1
    26    12    33    1
    27    13    14    1
    28    13    34    1
    29    13    35    1
    30    14    19   ar
    31    14    15   ar
    32    15    16   ar
    33    16    17   ar
    34    16    36    1
    35    17    18   ar
    36    17    37    1
    37    18    19   ar
    38    18    38    1
    39    19    39    1
    40    20    40    1
    41    20    41    1
    42    20    48    1
    43    21    42    1
    44    21    43    1
    45    21    44    1
    46    21    48    1
    47    22    45    1
    48    22    46    1
    49    22    47    1
    50    22    48    1
    51    48    49    1
