@<TRIPOS>MOLECULE
ZINC15848263
 52 55 0 0 0
SMALL
GASTEIGER

@<TRIPOS>ATOM
      1 C           4.6034   -2.9599    1.4394 C.3     1  UNL1       -0.0627
      2 C           3.1247   -2.5673    1.4520 C.3     1  UNL1       -0.0263
      3 C           2.4194   -3.2024    0.2562 C.3     1  UNL1        0.0715
      4 C           3.1297   -2.8001   -1.0530 C.3     1  UNL1       -0.0232
      5 C           2.0060   -2.5358   -2.0738 C.3     1  UNL1       -0.0467
      6 C           0.8060   -2.0428   -1.2226 C.3     1  UNL1       -0.0298
      7 H          -0.1494   -2.3472   -1.7053 H       1  UNL1        0.0310
      8 C           0.9615   -2.7681    0.1162 C.3     1  UNL1       -0.0002
      9 C           0.3762   -2.0628    1.3098 C.3     1  UNL1       -0.0445
     10 C           0.5757   -0.5515    1.3107 C.3     1  UNL1       -0.0488
     11 C           0.0021   -0.0041    0.0020 C.3     1  UNL1       -0.0314
     12 H          -1.0167   -0.3780   -0.1277 H       1  UNL1        0.0309
     13 C           0.8723   -0.5235   -1.1418 C.3     1  UNL1       -0.0340
     14 H           0.4672   -0.1111   -2.0812 H       1  UNL1        0.0307
     15 C           2.3076   -0.0300   -0.9902 C.3     1  UNL1       -0.0460
     16 C           2.3391    1.5022   -1.0484 C.3     1  UNL1       -0.0308
     17 C           1.3869    2.0463   -0.0002 C.2     1  UNL1       -0.0629
     18 C           1.8388    2.9609    0.8522 C.2     1  UNL1       -0.0197
     19 C           0.9204    3.5998    1.8009 C.2     1  UNL1        0.1561
     20 O           1.3234    4.2023    2.7731 O.2     1  UNL1       -0.2927
     21 C          -0.5595    3.4964    1.4882 C.3     1  UNL1        0.0104
     22 C          -0.8680    2.0365    1.1556 C.3     1  UNL1       -0.0392
     23 C          -0.0186    1.5234    0.0104 C.3     1  UNL1       -0.0160
     24 H          -0.4929    1.8498   -0.9214 H       1  UNL1        0.0349
     25 C           0.1458   -4.0852   -0.0215 C.3     1  UNL1       -0.0567
     26 O           2.4727   -4.6339    0.3919 O.3     1  UNL1       -0.3880
     27 H           5.1070   -2.5065    2.2931 H       1  UNL1        0.0231
     28 H           4.6919   -4.0446    1.4994 H       1  UNL1        0.0231
     29 H           5.0649   -2.6082    0.5166 H       1  UNL1        0.0231
     30 H           3.0362   -1.4826    1.3919 H       1  UNL1        0.0290
     31 H           2.6633   -2.9190    2.3748 H       1  UNL1        0.0290
     32 H           3.7331   -1.9090   -0.8979 H       1  UNL1        0.0293
     33 H           3.7622   -3.6212   -1.3965 H       1  UNL1        0.0293
     34 H           1.7473   -3.4603   -2.5998 H       1  UNL1        0.0269
     35 H           2.3082   -1.7820   -2.8009 H       1  UNL1        0.0269
     36 H          -0.7150   -2.2467    1.2964 H       1  UNL1        0.0272
     37 H           0.7346   -2.4918    2.2411 H       1  UNL1        0.0272
     38 H           1.6269   -0.2958    1.3982 H       1  UNL1        0.0268
     39 H           0.0359   -0.1236    2.1602 H       1  UNL1        0.0268
     40 H           2.7279   -0.3567   -0.0427 H       1  UNL1        0.0271
     41 H           2.9222   -0.4131   -1.8083 H       1  UNL1        0.0271
     42 H           3.3493    1.8539   -0.8463 H       1  UNL1        0.0310
     43 H           2.0237    1.8344   -2.0372 H       1  UNL1        0.0310
     44 H           2.8750    3.2655    0.8209 H       1  UNL1        0.0652
     45 H          -1.0896    3.7922    2.2829 H       1  UNL1        0.0345
     46 H          -0.8019    4.1296    0.6346 H       1  UNL1        0.0345
     47 H          -1.9217    1.9582    0.8753 H       1  UNL1        0.0275
     48 H          -0.7005    1.4323    2.0441 H       1  UNL1        0.0275
     49 H           0.5489   -4.6781   -0.8426 H       1  UNL1        0.0236
     50 H           0.2152   -4.6542    0.9056 H       1  UNL1        0.0236
     51 H          -0.8982   -3.8465   -0.2241 H       1  UNL1        0.0236
     52 H           3.3680   -4.9870    0.4858 H       1  UNL1        0.2102
@<TRIPOS>BOND
     1     1     2    1
     2     1    27    1
     3     1    28    1
     4     1    29    1
     5     2     3    1
     6     2    30    1
     7     2    31    1
     8     3     8    1
     9     3     4    1
    10     3    26    1
    11     4     5    1
    12     4    32    1
    13     4    33    1
    14     5     6    1
    15     5    34    1
    16     5    35    1
    17     6     7    1
    18     6    13    1
    19     6     8    1
    20     8     9    1
    21     8    25    1
    22     9    10    1
    23     9    36    1
    24     9    37    1
    25    10    11    1
    26    10    38    1
    27    10    39    1
    28    11    12    1
    29    11    23    1
    30    11    13    1
    31    13    14    1
    32    13    15    1
    33    15    16    1
    34    15    40    1
    35    15    41    1
    36    16    17    1
    37    16    42    1
    38    16    43    1
    39    17    23    1
    40    17    18    2
    41    18    19    1
    42    18    44    1
    43    19    20    2
    44    19    21    1
    45    21    22    1
    46    21    45    1
    47    21    46    1
    48    22    23    1
    49    22    47    1
    50    22    48    1
    51    23    24    1
    52    25    49    1
    53    25    50    1
    54    25    51    1
    55    26    52    1
