@<TRIPOS>MOLECULE
ZINC03830336
 65 69 0 0 0
SMALL
GASTEIGER

@<TRIPOS>ATOM
      1 C           0.7117    0.8961    2.3188 C.3     1  UNL1       -0.0651
      2 C          -0.0029    1.5184    1.1175 C.3     1  UNL1       -0.0513
      3 C           0.5382    0.9013   -0.1737 C.3     1  UNL1       -0.0018
      4 C          -0.1764    1.5236   -1.3749 C.3     1  UNL1        0.1610
      5 H          -0.0894    2.6093   -1.3337 H       1  UNL1        0.0910
      6 O          -1.5812    1.1409   -1.3648 O.3     1  UNL1       -0.3448
      7 C          -1.7206    0.2823   -2.4632 C.3     1  UNL1        0.0984
      8 H          -1.3800   -0.7190   -2.1995 H       1  UNL1        0.0630
      9 C          -2.9450    0.1963   -3.3508 C.3     1  UNL1       -0.0196
     10 C          -2.3252   -0.3701   -4.6817 C.3     1  UNL1       -0.0268
     11 H          -2.8663    0.0262   -5.5409 H       1  UNL1        0.0311
     12 C          -2.4877   -1.8793   -4.6204 C.3     1  UNL1       -0.0310
     13 H          -3.4531   -2.1353   -5.0568 H       1  UNL1        0.0308
     14 C          -2.5056   -2.3325   -3.1600 C.3     1  UNL1       -0.0458
     15 C          -2.7830   -3.8406   -3.0682 C.3     1  UNL1       -0.0302
     16 C          -1.7229   -4.5272   -3.9110 C.2     1  UNL1       -0.0559
     17 C          -0.8775   -5.3851   -3.3637 C.2     1  UNL1       -0.0149
     18 C           0.2570   -5.8884   -4.1630 C.2     1  UNL1        0.1787
     19 O           1.2174   -6.4090   -3.6269 O.2     1  UNL1       -0.2879
     20 C           0.1947   -5.7423   -5.6293 C.2     1  UNL1       -0.0180
     21 C          -0.6804   -4.9050   -6.1492 C.2     1  UNL1       -0.0701
     22 C          -1.6398   -4.1040   -5.3499 C.3     1  UNL1        0.0131
     23 C          -1.4009   -2.6026   -5.4103 C.3     1  UNL1        0.0007
     24 H          -1.4144   -2.2636   -6.4461 H       1  UNL1        0.0340
     25 C          -0.0510   -2.2536   -4.7720 C.3     1  UNL1        0.0600
     26 H           0.7345   -2.8747   -5.2024 H       1  UNL1        0.0596
     27 C           0.2254   -0.7835   -5.0736 C.3     1  UNL1       -0.0177
     28 C          -0.8755    0.1207   -4.6857 C.3     1  UNL1        0.0121
     29 C          -0.6986    0.9529   -3.4607 C.3     1  UNL1        0.1637
     30 O           0.4167    1.0271   -2.6144 O.3     1  UNL1       -0.3342
     31 C          -1.1798    2.3495   -3.7591 C.2     1  UNL1        0.1931
     32 O          -2.3600    2.5649   -3.8970 O.2     1  UNL1       -0.2918
     33 C          -0.1882    3.4773   -3.8853 C.3     1  UNL1        0.1053
     34 O          -0.8891    4.7115   -4.0511 O.3     1  UNL1       -0.3874
     35 C          -0.8762    1.1609   -5.8077 C.3     1  UNL1       -0.0561
     36 O          -0.1135   -2.4585   -3.3592 O.3     1  UNL1       -0.3914
     37 C          -3.0242   -4.3475   -5.9541 C.3     1  UNL1       -0.0520
     38 H           0.3262    1.3357    3.2386 H       1  UNL1        0.0230
     39 H           0.5361   -0.1796    2.3287 H       1  UNL1        0.0230
     40 H           1.7820    1.0888    2.2447 H       1  UNL1        0.0230
     41 H           0.1728    2.5941    1.1075 H       1  UNL1        0.0264
     42 H          -1.0732    1.3257    1.1916 H       1  UNL1        0.0264
     43 H           0.3626   -0.1744   -0.1637 H       1  UNL1        0.0314
     44 H           1.6085    1.0940   -0.2478 H       1  UNL1        0.0314
     45 H          -3.6805   -0.4936   -2.9371 H       1  UNL1        0.0294
     46 H          -3.3825    1.1817   -3.5105 H       1  UNL1        0.0294
     47 H          -1.5393   -2.1161   -2.7043 H       1  UNL1        0.0271
     48 H          -3.2848   -1.7901   -2.6245 H       1  UNL1        0.0271
     49 H          -3.7748   -4.0625   -3.4621 H       1  UNL1        0.0310
     50 H          -2.7099   -4.1730   -2.0327 H       1  UNL1        0.0310
     51 H          -1.0155   -5.7131   -2.3441 H       1  UNL1        0.0655
     52 H           0.8601   -6.3093   -6.2634 H       1  UNL1        0.0653
     53 H          -0.6966   -4.8040   -7.2243 H       1  UNL1        0.0582
     54 H           1.1248   -0.4816   -4.5368 H       1  UNL1        0.0297
     55 H           0.4072   -0.6761   -6.1429 H       1  UNL1        0.0297
     56 H           0.3735    3.5213   -3.0591 H       1  UNL1        0.0637
     57 H           0.4514    3.3036   -4.7507 H       1  UNL1        0.0637
     58 H          -0.3123    5.4827   -4.1389 H       1  UNL1        0.2100
     59 H           0.0047    1.7962   -5.7148 H       1  UNL1        0.0236
     60 H          -0.8586    0.6544   -6.7727 H       1  UNL1        0.0236
     61 H          -1.7750    1.7732   -5.7350 H       1  UNL1        0.0236
     62 H           0.7103   -2.2552   -2.8954 H       1  UNL1        0.2098
     63 H          -3.0387   -3.9917   -6.9843 H       1  UNL1        0.0241
     64 H          -3.2463   -5.4145   -5.9351 H       1  UNL1        0.0241
     65 H          -3.7737   -3.8099   -5.3734 H       1  UNL1        0.0241
@<TRIPOS>BOND
     1     1     2    1
     2     1    38    1
     3     1    39    1
     4     1    40    1
     5     2     3    1
     6     2    41    1
     7     2    42    1
     8     3     4    1
     9     3    43    1
    10     3    44    1
    11     4     5    1
    12     4    30    1
    13     4     6    1
    14     6     7    1
    15     7     8    1
    16     7    29    1
    17     7     9    1
    18     9    10    1
    19     9    45    1
    20     9    46    1
    21    10    11    1
    22    10    28    1
    23    10    12    1
    24    12    13    1
    25    12    23    1
    26    12    14    1
    27    14    15    1
    28    14    47    1
    29    14    48    1
    30    15    16    1
    31    15    49    1
    32    15    50    1
    33    16    22    1
    34    16    17    2
    35    17    18    1
    36    17    51    1
    37    18    19    2
    38    18    20    1
    39    20    21    2
    40    20    52    1
    41    21    22    1
    42    21    53    1
    43    22    23    1
    44    22    37    1
    45    23    24    1
    46    23    25    1
    47    25    26    1
    48    25    27    1
    49    25    36    1
    50    27    28    1
    51    27    54    1
    52    27    55    1
    53    28    29    1
    54    28    35    1
    55    29    30    1
    56    29    31    1
    57    31    32    2
    58    31    33    1
    59    33    34    1
    60    33    56    1
    61    33    57    1
    62    34    58    1
    63    35    59    1
    64    35    60    1
    65    35    61    1
    66    36    62    1
    67    37    63    1
    68    37    64    1
    69    37    65    1
