@<TRIPOS>MOLECULE
ZINC03830342
 76 82 0 0 0
SMALL
GASTEIGER

@<TRIPOS>ATOM
      1 C          -4.6050    4.3684   -0.8322 C.3     1  UNL1       -0.0574
      2 C          -5.3545    5.6509   -1.1984 C.3     1  UNL1       -0.0088
      3 C          -4.5342    6.8647   -0.7569 C.3     1  UNL1       -0.0574
      4 C          -6.7114    5.6681   -0.4917 C.3     1  UNL1       -0.0574
      5 C          -5.5674    5.7027   -2.7126 C.3     1  UNL1        0.0737
      6 C          -4.2105    5.6855   -3.4193 C.3     1  UNL1       -0.0352
      7 C          -6.3853    4.4924   -3.1527 C.3     1  UNL1        0.0214
      8 H          -7.2007    4.3730   -2.4082 H       1  UNL1        0.0358
      9 C          -5.5539    3.2065   -3.1100 C.3     1  UNL1       -0.0331
     10 C          -5.4962    2.5823   -4.5082 C.3     1  UNL1        0.0278
     11 C          -6.9234    2.2384   -4.9080 C.3     1  UNL1       -0.0385
     12 C          -7.8888    3.4089   -4.6765 C.3     1  UNL1       -0.0191
     13 C          -7.0590    4.7542   -4.5277 C.3     1  UNL1        0.1120
     14 C          -6.1397    4.6325   -5.6941 C.3     1  UNL1        0.1400
     15 H          -6.6901    3.9079   -6.3290 H       1  UNL1        0.0771
     16 C          -4.9678    3.7050   -5.3913 C.3     1  UNL1        0.0547
     17 C          -3.6188    4.2315   -4.9950 C.3     1  UNL1        0.0015
     18 C          -2.6307    3.0450   -5.0077 C.3     1  UNL1       -0.0306
     19 C          -4.4872    1.4618   -4.6972 C.3     1  UNL1       -0.0101
     20 H          -4.8005    0.6377   -4.0564 H       1  UNL1        0.0860
     21 C          -4.3973    0.9353   -6.1321 C.3     1  UNL1        0.0165
     22 C          -4.5773    1.9612   -7.2064 C.ar    1  UNL1       -0.0345
     23 C          -4.8722    3.2368   -6.8197 C.ar    1  UNL1        0.0120
     24 C          -5.1987    4.3604   -7.5842 C.ar    1  UNL1        0.1663
     25 C          -5.1113    4.1817   -8.9566 C.ar    1  UNL1        0.1588
     26 C          -4.7495    2.9060   -9.4004 C.ar    1  UNL1       -0.0162
     27 C          -4.4964    1.8145   -8.5765 C.ar    1  UNL1       -0.0544
     28 O          -5.3635    5.1939   -9.8290 O.3     1  UNL1       -0.5033
     29 O          -5.5464    5.3981   -6.7218 O.3     1  UNL1       -0.4811
     30 C          -2.2148    0.8662   -4.0115 C.3     1  UNL1       -0.0287
     31 C          -1.0729    1.3768   -3.1305 C.3     1  UNL1       -0.0007
     32 C           0.1068    0.4337   -2.8860 C.3     1  UNL1       -0.0450
     33 C          -0.8890    0.7199   -1.7602 C.3     1  UNL1       -0.0450
     34 O          -7.8765    5.9381   -4.5515 O.3     1  UNL1       -0.3725
     35 C          -8.5010    6.1881   -5.8123 C.3     1  UNL1        0.0373
     36 O          -6.2675    6.9006   -3.0545 O.3     1  UNL1       -0.3880
     37 H          -3.7092    4.2828   -1.4474 H       1  UNL1        0.0236
     38 H          -4.3216    4.4009    0.2198 H       1  UNL1        0.0236
     39 H          -5.2502    3.5076   -1.0083 H       1  UNL1        0.0236
     40 H          -5.0682    7.7784   -1.0178 H       1  UNL1        0.0236
     41 H          -4.3825    6.8279    0.3218 H       1  UNL1        0.0236
     42 H          -3.5676    6.8525   -1.2604 H       1  UNL1        0.0236
     43 H          -7.2958    4.8034   -0.8061 H       1  UNL1        0.0236
     44 H          -6.5597    5.6313    0.5871 H       1  UNL1        0.0236
     45 H          -7.2454    6.5818   -0.7525 H       1  UNL1        0.0236
     46 H          -4.3565    5.4881   -4.4813 H       1  UNL1        0.0257
     47 H          -3.7229    6.6522   -3.2931 H       1  UNL1        0.0257
     48 H          -3.5856    4.9041   -2.9870 H       1  UNL1        0.0257
     49 H          -6.0124    2.4977   -2.4106 H       1  UNL1        0.0277
     50 H          -4.5433    3.4297   -2.7583 H       1  UNL1        0.0277
     51 H          -6.9432    1.9514   -5.9661 H       1  UNL1        0.0274
     52 H          -7.2569    1.3712   -4.3236 H       1  UNL1        0.0274
     53 H          -8.4687    3.2427   -3.7670 H       1  UNL1        0.0294
     54 H          -8.5732    3.5031   -5.5231 H       1  UNL1        0.0294
     55 H          -3.6405    4.6722   -4.0024 H       1  UNL1        0.0327
     56 H          -3.2943    4.9855   -5.7192 H       1  UNL1        0.0327
     57 H          -1.6856    3.3607   -4.5678 H       1  UNL1        0.0815
     58 H          -2.4646    2.7210   -6.0319 H       1  UNL1        0.0815
     59 H          -5.1830    0.1813   -6.2586 H       1  UNL1        0.0368
     60 H          -3.4420    0.4395   -6.2846 H       1  UNL1        0.0368
     61 H          -4.6590    2.7567  -10.4663 H       1  UNL1        0.0655
     62 H          -4.2361    0.8592   -9.0063 H       1  UNL1        0.0622
     63 H          -4.5847    5.7196  -10.0573 H       1  UNL1        0.2923
     64 H          -1.8151    0.5410   -4.9721 H       1  UNL1        0.0817
     65 H          -2.7059    0.0267   -3.5194 H       1  UNL1        0.0817
     66 H          -0.8572    2.4422   -3.2112 H       1  UNL1        0.0352
     67 H           0.0693   -0.5506   -3.3528 H       1  UNL1        0.0270
     68 H           1.0986    0.8786   -2.8059 H       1  UNL1        0.0270
     69 H          -1.5814   -0.0761   -1.4863 H       1  UNL1        0.0270
     70 H          -0.5523    1.3534   -0.9396 H       1  UNL1        0.0270
     71 H          -7.7358    6.3101   -6.5789 H       1  UNL1        0.0524
     72 H          -9.1446    5.3475   -6.0719 H       1  UNL1        0.0524
     73 H          -9.0989    7.0971   -5.7477 H       1  UNL1        0.0524
     74 H          -7.1382    6.9789   -2.6411 H       1  UNL1        0.2102
     75 N          -3.1911    1.9687   -4.1533 N.4     1  UNL1        0.2383
     76 H          -3.3695    2.3614   -3.2215 H       1  UNL1        0.2036
@<TRIPOS>UNITY_ATOM_ATTR
75 1
charge 1
@<TRIPOS>BOND
     1     1     2    1
     2     1    37    1
     3     1    38    1
     4     1    39    1
     5     2     3    1
     6     2     4    1
     7     2     5    1
     8     3    40    1
     9     3    41    1
    10     3    42    1
    11     4    43    1
    12     4    44    1
    13     4    45    1
    14     5     6    1
    15     5     7    1
    16     5    36    1
    17     6    46    1
    18     6    47    1
    19     6    48    1
    20     7     8    1
    21     7    13    1
    22     7     9    1
    23     9    10    1
    24     9    49    1
    25     9    50    1
    26    10    16    1
    27    10    19    1
    28    10    11    1
    29    11    12    1
    30    11    51    1
    31    11    52    1
    32    12    13    1
    33    12    53    1
    34    12    54    1
    35    13    14    1
    36    13    34    1
    37    14    15    1
    38    14    29    1
    39    14    16    1
    40    16    23    1
    41    16    17    1
    42    17    18    1
    43    17    55    1
    44    17    56    1
    45    18    57    1
    46    18    58    1
    47    18    75    1
    48    19    20    1
    49    19    21    1
    50    19    75    1
    51    21    22    1
    52    21    59    1
    53    21    60    1
    54    22    27   ar
    55    22    23   ar
    56    23    24   ar
    57    24    25   ar
    58    24    29    1
    59    25    26   ar
    60    25    28    1
    61    26    27   ar
    62    26    61    1
    63    27    62    1
    64    28    63    1
    65    30    31    1
    66    30    64    1
    67    30    65    1
    68    30    75    1
    69    31    33    1
    70    31    32    1
    71    31    66    1
    72    32    33    1
    73    32    67    1
    74    32    68    1
    75    33    69    1
    76    33    70    1
    77    34    35    1
    78    35    71    1
    79    35    72    1
    80    35    73    1
    81    36    74    1
    82    75    76    1
