@<TRIPOS>MOLECULE
ZINC03830339
 47 48 0 0 0
SMALL
GASTEIGER

@<TRIPOS>ATOM
      1 C         -10.9657    1.8559   -3.2149 C.3     1  UNL1       -0.0193
      2 C         -10.5323    0.4470   -3.6247 C.3     1  UNL1       -0.0203
      3 C         -11.0789    0.1304   -5.0182 C.3     1  UNL1       -0.0193
      4 C         -11.0802   -0.5678   -2.6193 C.3     1  UNL1       -0.0193
      5 C          -8.5042    0.6714   -2.3213 C.3     1  UNL1       -0.0033
      6 C          -6.9779    0.5842   -2.3826 C.3     1  UNL1        0.1285
      7 H          -6.6016    1.3057   -3.1079 H       1  UNL1        0.0681
      8 C          -6.3934    0.8956   -1.0033 C.3     1  UNL1        0.1204
      9 O          -4.9673    0.9287   -1.0867 O.3     1  UNL1       -0.4889
     10 C          -4.2881    1.1944    0.0602 C.ar    1  UNL1        0.1244
     11 C          -4.9840    1.4178    1.2397 C.ar    1  UNL1       -0.0196
     12 C          -4.3045    1.6895    2.4131 C.ar    1  UNL1       -0.0576
     13 C          -2.9258    1.7409    2.4164 C.ar    1  UNL1       -0.0508
     14 C          -2.2178    1.5185    1.2320 C.ar    1  UNL1        0.0240
     15 C          -2.9012    1.2411    0.0473 C.ar    1  UNL1        0.0047
     16 C          -2.1718    0.9901   -1.2439 C.3     1  UNL1       -0.0232
     17 C          -0.7747    1.6040   -1.2189 C.3     1  UNL1       -0.0419
     18 C          -0.0127    1.0858    0.0080 C.3     1  UNL1        0.0108
     19 C          -0.7416    1.5842    1.2388 C.2     1  UNL1        0.1635
     20 O          -0.1352    2.0216    2.1934 O.2     1  UNL1       -0.2920
     21 O          -6.5916   -0.7337   -2.7772 O.3     1  UNL1       -0.3831
     22 H         -10.5753    2.5789   -3.9312 H       1  UNL1        0.0287
     23 H         -12.0542    1.9112   -3.1994 H       1  UNL1        0.0287
     24 H         -10.5763    2.0815   -2.2221 H       1  UNL1        0.0287
     25 H         -10.7701   -0.8734   -5.3102 H       1  UNL1        0.0287
     26 H         -12.1673    0.1856   -5.0028 H       1  UNL1        0.0287
     27 H         -10.6885    0.8533   -5.7345 H       1  UNL1        0.0287
     28 H         -10.6908   -0.3423   -1.6265 H       1  UNL1        0.0287
     29 H         -12.1687   -0.5126   -2.6038 H       1  UNL1        0.0287
     30 H         -10.7715   -1.5716   -2.9113 H       1  UNL1        0.0287
     31 H          -8.8805   -0.0500   -1.5959 H       1  UNL1        0.0841
     32 H          -8.7989    1.6768   -2.0203 H       1  UNL1        0.0841
     33 H          -6.6982    0.1235   -0.2969 H       1  UNL1        0.0725
     34 H          -6.7601    1.8642   -0.6635 H       1  UNL1        0.0725
     35 H          -6.0634    1.3797    1.2413 H       1  UNL1        0.0654
     36 H          -4.8532    1.8610    3.3274 H       1  UNL1        0.0619
     37 H          -2.3946    1.9530    3.3324 H       1  UNL1        0.0625
     38 H          -2.7393    1.4273   -2.0653 H       1  UNL1        0.0315
     39 H          -2.0865   -0.0851   -1.4016 H       1  UNL1        0.0315
     40 H          -0.8555    2.6896   -1.1650 H       1  UNL1        0.0273
     41 H          -0.2379    1.3239   -2.1253 H       1  UNL1        0.0273
     42 H           0.0076    0.0862   -0.0100 H       1  UNL1        0.0345
     43 H           1.0073    1.4701    0.0003 H       1  UNL1        0.0345
     44 H          -6.8931   -1.4286   -2.1761 H       1  UNL1        0.2102
     45 N          -9.0595    0.3701   -3.6542 N.4     1  UNL1        0.2327
     46 H          -8.6983    1.0503   -4.3332 H       1  UNL1        0.2020
     47 H          -8.7752   -0.5762   -3.9335 H       1  UNL1        0.2020
@<TRIPOS>UNITY_ATOM_ATTR
45 1
charge 1
@<TRIPOS>BOND
     1     1     2    1
     2     1    22    1
     3     1    23    1
     4     1    24    1
     5     2     3    1
     6     2     4    1
     7     2    45    1
     8     3    25    1
     9     3    26    1
    10     3    27    1
    11     4    28    1
    12     4    29    1
    13     4    30    1
    14     5     6    1
    15     5    31    1
    16     5    32    1
    17     5    45    1
    18     6     7    1
    19     6     8    1
    20     6    21    1
    21     8     9    1
    22     8    33    1
    23     8    34    1
    24     9    10    1
    25    10    15   ar
    26    10    11   ar
    27    11    12   ar
    28    11    35    1
    29    12    13   ar
    30    12    36    1
    31    13    14   ar
    32    13    37    1
    33    14    19    1
    34    14    15   ar
    35    15    16    1
    36    16    17    1
    37    16    38    1
    38    16    39    1
    39    17    18    1
    40    17    40    1
    41    17    41    1
    42    18    19    1
    43    18    42    1
    44    18    43    1
    45    19    20    2
    46    21    44    1
    47    45    46    1
    48    45    47    1
