@<TRIPOS>MOLECULE
ZINC09211296
 27 29 0 0 0
SMALL
GASTEIGER

@<TRIPOS>ATOM
      1 C           0.4735   -2.7071    0.1699 C.ar    1  UNL1       -0.0015
      2 C           1.4392   -1.8350    0.5173 C.ar    1  UNL1        0.0154
      3 N           1.2006   -0.4905    0.4230 N.ar    1  UNL1       -0.2723
      4 C           0.0021   -0.0041    0.0020 C.ar    1  UNL1        0.3026
      5 N          -0.9683   -0.8260   -0.3529 N.ar    1  UNL1       -0.1778
      6 C          -0.8076   -2.1621   -0.2995 C.ar    1  UNL1        0.1520
      7 N          -1.7862   -2.9695   -0.6628 N.2     1  UNL1       -0.2819
      8 O          -0.0163    1.3527    0.0095 O.3     1  UNL1       -0.4529
      9 C           1.3417    1.8198   -0.0010 C.3     1  UNL1        0.1763
     10 H           1.7192    2.0327   -1.0011 H       1  UNL1        0.0807
     11 C           2.0856    0.6576    0.7143 C.3     1  UNL1        0.1789
     12 H           3.1003    0.5126    0.3436 H       1  UNL1        0.0878
     13 O           2.0463    0.9290    2.1174 O.3     1  UNL1       -0.3444
     14 C           1.7053    2.2926    2.3663 C.3     1  UNL1        0.1137
     15 H           0.7893    2.3413    2.9552 H       1  UNL1        0.0647
     16 C           1.4893    2.9877    1.0120 C.3     1  UNL1        0.1246
     17 H           0.5849    3.5956    1.0346 H       1  UNL1        0.0659
     18 O           2.6224    3.7906    0.6749 O.3     1  UNL1       -0.3853
     19 C           2.8434    2.9799    3.1235 C.3     1  UNL1        0.0730
     20 O           2.9603    2.4090    4.4283 O.3     1  UNL1       -0.3924
     21 H           0.6358   -3.7730    0.2339 H       1  UNL1        0.0669
     22 H           2.3953   -2.1941    0.8684 H       1  UNL1        0.0812
     23 H          -2.6291   -2.6018   -0.9713 H       1  UNL1        0.1883
     24 H           2.8011    4.5027    1.3043 H       1  UNL1        0.2101
     25 H           3.7779    2.8395    2.5804 H       1  UNL1        0.0584
     26 H           2.6303    4.0453    3.2108 H       1  UNL1        0.0584
     27 H           3.6639    2.7975    4.9659 H       1  UNL1        0.2095
@<TRIPOS>BOND
     1     1     6   ar
     2     1     2   ar
     3     1    21    1
     4     2     3   ar
     5     2    22    1
     6     3    11    1
     7     3     4   ar
     8     4     5   ar
     9     4     8    1
    10     5     6   ar
    11     6     7    2
    12     7    23    1
    13     8     9    1
    14     9    10    1
    15     9    16    1
    16     9    11    1
    17    11    12    1
    18    11    13    1
    19    13    14    1
    20    14    15    1
    21    14    16    1
    22    14    19    1
    23    16    17    1
    24    16    18    1
    25    18    24    1
    26    19    20    1
    27    19    25    1
    28    19    26    1
    29    20    27    1
