@<TRIPOS>MOLECULE
ZINC11592859
 59 62 0 0 0
SMALL
GASTEIGER

@<TRIPOS>ATOM
      1 C           2.0073    5.3691    5.2958 C.3     1  UNL1        0.0332
      2 C           1.5869    5.1300    3.8685 C.2     1  UNL1        0.3043
      3 O           1.0650    6.0173    3.2357 O.2     1  UNL1       -0.2512
      4 O           1.7922    3.9315    3.3001 O.3     1  UNL1       -0.4570
      5 C           1.3620    3.7729    1.9224 C.3     1  UNL1        0.1530
      6 C           1.6716    2.3732    1.4575 C.2     1  UNL1        0.2022
      7 O           2.2002    1.5902    2.2096 O.2     1  UNL1       -0.2907
      8 C           1.3208    1.9500    0.0515 C.3     1  UNL1        0.1329
      9 C           2.3140    0.8792   -0.4363 C.3     1  UNL1       -0.0161
     10 C           1.4386   -0.2780   -0.9907 C.3     1  UNL1       -0.0463
     11 C           0.2033   -0.1995   -0.0816 C.3     1  UNL1       -0.0286
     12 H           0.5242   -0.5353    0.9212 H       1  UNL1        0.0310
     13 C          -0.0906    1.3044    0.0259 C.3     1  UNL1        0.0135
     14 C          -0.7880    1.7914   -1.2464 C.3     1  UNL1        0.0148
     15 C          -2.0004    0.9474   -1.5319 C.2     1  UNL1        0.1381
     16 O          -3.0609    1.4937   -1.7762 O.2     1  UNL1       -0.2971
     17 C          -1.9241   -0.5628   -1.5090 C.3     1  UNL1        0.0297
     18 H          -2.7959   -0.9358   -1.1915 H       1  UNL1        0.0389
     19 C          -0.9528   -1.0655   -0.4811 C.3     1  UNL1       -0.0270
     20 H          -1.5685   -1.0999    0.4658 H       1  UNL1        0.0311
     21 C          -0.5270   -2.5224   -0.6390 C.3     1  UNL1       -0.0456
     22 C          -0.0576   -2.7991   -2.0707 C.3     1  UNL1       -0.0305
     23 C          -1.2554   -2.4969   -2.9545 C.2     1  UNL1       -0.0597
     24 C          -1.7236   -3.4671   -3.7316 C.2     1  UNL1       -0.0194
     25 C          -2.9360   -3.2284   -4.5207 C.2     1  UNL1        0.1561
     26 O          -3.1745   -3.8480   -5.5371 O.2     1  UNL1       -0.2927
     27 C          -3.8652   -2.1549   -3.9963 C.3     1  UNL1        0.0107
     28 C          -3.0708   -0.8913   -3.7118 C.3     1  UNL1       -0.0363
     29 C          -1.7946   -1.1057   -2.9209 C.3     1  UNL1       -0.0005
     30 C          -0.7646   -0.2415   -3.6654 C.3     1  UNL1       -0.0552
     31 C          -0.8952    1.6444    1.2854 C.3     1  UNL1       -0.0559
     32 O           1.3666    3.0869   -0.8151 O.3     1  UNL1       -0.3804
     33 H           3.0325    5.7388    5.3155 H       1  UNL1        0.0342
     34 H           1.3463    6.1068    5.7506 H       1  UNL1        0.0342
     35 H           1.9473    4.4346    5.8536 H       1  UNL1        0.0342
     36 H           1.8452    4.4306    1.3445 H       1  UNL1        0.0779
     37 H           0.2885    3.9493    1.8544 H       1  UNL1        0.0779
     38 H           2.9255    0.5179    0.3880 H       1  UNL1        0.0297
     39 H           2.9374    1.2782   -1.2333 H       1  UNL1        0.0297
     40 H           1.9505   -1.2331   -0.8618 H       1  UNL1        0.0269
     41 H           1.1971   -0.1000   -2.0302 H       1  UNL1        0.0269
     42 H          -1.0847    2.7383   -1.1223 H       1  UNL1        0.0348
     43 H          -0.0951    1.7507   -2.0828 H       1  UNL1        0.0348
     44 H           0.2854   -2.7315    0.0584 H       1  UNL1        0.0271
     45 H          -1.3735   -3.1699   -0.4061 H       1  UNL1        0.0271
     46 H           0.7802   -2.1615   -2.3297 H       1  UNL1        0.0310
     47 H           0.2233   -3.8483   -2.1691 H       1  UNL1        0.0310
     48 H          -1.2148   -4.4220   -3.7808 H       1  UNL1        0.0652
     49 H          -4.2968   -2.4712   -3.1515 H       1  UNL1        0.0345
     50 H          -4.6386   -1.9466   -4.7424 H       1  UNL1        0.0345
     51 H          -3.7051   -0.1967   -3.1552 H       1  UNL1        0.0278
     52 H          -2.8053   -0.4151   -4.6589 H       1  UNL1        0.0278
     53 H          -0.7535   -0.5169   -4.7199 H       1  UNL1        0.0238
     54 H          -1.0340    0.8102   -3.5674 H       1  UNL1        0.0238
     55 H           0.2242   -0.4046   -3.2368 H       1  UNL1        0.0238
     56 H          -0.3457    1.3155    2.1674 H       1  UNL1        0.0236
     57 H          -1.0526    2.7218    1.3362 H       1  UNL1        0.0236
     58 H          -1.8596    1.1377    1.2482 H       1  UNL1        0.0236
     59 H           2.2260    3.5297   -0.8381 H       1  UNL1        0.2108
@<TRIPOS>BOND
     1     1     2    1
     2     1    33    1
     3     1    34    1
     4     1    35    1
     5     2     3    2
     6     2     4    1
     7     4     5    1
     8     5     6    1
     9     5    36    1
    10     5    37    1
    11     6     7    2
    12     6     8    1
    13     8    13    1
    14     8     9    1
    15     8    32    1
    16     9    10    1
    17     9    38    1
    18     9    39    1
    19    10    11    1
    20    10    40    1
    21    10    41    1
    22    11    12    1
    23    11    19    1
    24    11    13    1
    25    13    14    1
    26    13    31    1
    27    14    15    1
    28    14    42    1
    29    14    43    1
    30    15    16    2
    31    15    17    1
    32    17    18    1
    33    17    29    1
    34    17    19    1
    35    19    20    1
    36    19    21    1
    37    21    22    1
    38    21    44    1
    39    21    45    1
    40    22    23    1
    41    22    46    1
    42    22    47    1
    43    23    29    1
    44    23    24    2
    45    24    25    1
    46    24    48    1
    47    25    26    2
    48    25    27    1
    49    27    28    1
    50    27    49    1
    51    27    50    1
    52    28    29    1
    53    28    51    1
    54    28    52    1
    55    29    30    1
    56    30    53    1
    57    30    54    1
    58    30    55    1
    59    31    56    1
    60    31    57    1
    61    31    58    1
    62    32    59    1
