@<TRIPOS>MOLECULE
ZINC03831578
 58 59 0 0 0
SMALL
GASTEIGER

@<TRIPOS>ATOM
      1 C          -3.9440    2.9905    0.0834 C.3     1  UNL1       -0.0594
      2 C          -3.6645    1.6628   -0.6238 C.3     1  UNL1       -0.0021
      3 C          -2.4177    1.0150   -0.0183 C.3     1  UNL1        0.0497
      4 C          -2.6126    0.8450    1.4897 C.3     1  UNL1        0.1422
      5 O          -3.7722    0.0068    1.7365 O.3     1  UNL1       -0.4548
      6 C          -4.0839   -0.2427    3.0234 C.2     1  UNL1        0.3396
      7 O          -3.4053    0.2272    3.9150 O.2     1  UNL1       -0.2450
      8 C          -5.2488   -1.0863    3.3498 C.ar    1  UNL1        0.0661
      9 C          -6.0337   -1.6228    2.3254 C.ar    1  UNL1       -0.0021
     10 C          -7.1213   -2.4177    2.6340 C.ar    1  UNL1        0.1660
     11 C          -7.4425   -2.6744    3.9644 C.ar    1  UNL1        0.2035
     12 C          -6.6655   -2.1368    4.9872 C.ar    1  UNL1        0.1660
     13 C          -5.5733   -1.3459    4.6842 C.ar    1  UNL1       -0.0021
     14 O          -6.9818   -2.3899    6.2855 O.3     1  UNL1       -0.4913
     15 C          -6.1420   -1.8062    7.2835 C.3     1  UNL1        0.0790
     16 O          -8.5161   -3.4513    4.2651 O.3     1  UNL1       -0.4885
     17 C          -9.7712   -2.7881    4.4293 C.3     1  UNL1        0.0791
     18 O          -7.8822   -2.9448    1.6375 O.3     1  UNL1       -0.4913
     19 C          -7.4953   -2.6407    0.2959 C.3     1  UNL1        0.0790
     20 C          -1.2204    1.8936   -0.2743 C.ar    1  UNL1        0.0065
     21 C          -1.1401    2.6296   -1.4417 C.ar    1  UNL1       -0.0529
     22 C          -0.0445    3.4399   -1.6739 C.ar    1  UNL1       -0.0613
     23 C           0.9733    3.5102   -0.7411 C.ar    1  UNL1       -0.0617
     24 C           0.8955    2.7701    0.4239 C.ar    1  UNL1       -0.0613
     25 C          -0.2001    1.9598    0.6561 C.ar    1  UNL1       -0.0529
     26 C          -2.0658   -0.1822   -2.0933 C.3     1  UNL1       -0.0424
     27 C          -1.0307   -0.9694   -0.0509 C.3     1  UNL1       -0.0424
     28 H          -4.0800    2.8124    1.1501 H       1  UNL1        0.0232
     29 H          -3.1025    3.6667   -0.0677 H       1  UNL1        0.0232
     30 H          -4.8484    3.4382   -0.3284 H       1  UNL1        0.0232
     31 H          -3.5002    1.8445   -1.6859 H       1  UNL1        0.0325
     32 H          -4.5181    0.9969   -0.4969 H       1  UNL1        0.0325
     33 H          -1.7274    0.3765    1.9199 H       1  UNL1        0.0762
     34 H          -2.7660    1.8217    1.9486 H       1  UNL1        0.0762
     35 H          -5.7878   -1.4201    1.2934 H       1  UNL1        0.0663
     36 H          -4.9713   -0.9286    5.4779 H       1  UNL1        0.0663
     37 H          -5.1211   -2.1661    7.1552 H       1  UNL1        0.0660
     38 H          -6.1597   -0.7209    7.1839 H       1  UNL1        0.0660
     39 H          -6.5044   -2.0863    8.2725 H       1  UNL1        0.0660
     40 H          -9.6964   -2.0648    5.2413 H       1  UNL1        0.0660
     41 H         -10.0328   -2.2717    3.5057 H       1  UNL1        0.0660
     42 H         -10.5416   -3.5219    4.6661 H       1  UNL1        0.0660
     43 H          -7.5226   -1.5615    0.1456 H       1  UNL1        0.0660
     44 H          -6.4844   -3.0070    0.1174 H       1  UNL1        0.0660
     45 H          -8.1840   -3.1218   -0.3987 H       1  UNL1        0.0660
     46 H          -1.9355    2.5749   -2.1703 H       1  UNL1        0.0622
     47 H           0.0161    4.0183   -2.5839 H       1  UNL1        0.0618
     48 H           1.8291    4.1435   -0.9224 H       1  UNL1        0.0618
     49 H           1.6905    2.8253    1.1528 H       1  UNL1        0.0618
     50 H          -0.2611    1.3819    1.5664 H       1  UNL1        0.0622
     51 H          -1.1848    0.4146   -2.3295 H       1  UNL1        0.0778
     52 H          -1.9598   -1.1752   -2.5301 H       1  UNL1        0.0778
     53 H          -2.9527    0.3018   -2.5022 H       1  UNL1        0.0778
     54 H          -1.2195   -1.1773    1.0023 H       1  UNL1        0.0778
     55 H          -0.8461   -1.9052   -0.5785 H       1  UNL1        0.0778
     56 H          -0.1585   -0.3222   -0.1429 H       1  UNL1        0.0778
     57 N          -2.2237   -0.3166   -0.6299 N.4     1  UNL1        0.2409
     58 H          -3.0486   -0.8963   -0.4353 H       1  UNL1        0.2038
@<TRIPOS>UNITY_ATOM_ATTR
57 1
charge 1
@<TRIPOS>BOND
     1     1     2    1
     2     1    28    1
     3     1    29    1
     4     1    30    1
     5     2     3    1
     6     2    31    1
     7     2    32    1
     8     3     4    1
     9     3    20    1
    10     3    57    1
    11     4     5    1
    12     4    33    1
    13     4    34    1
    14     5     6    1
    15     6     7    2
    16     6     8    1
    17     8    13   ar
    18     8     9   ar
    19     9    10   ar
    20     9    35    1
    21    10    11   ar
    22    10    18    1
    23    11    12   ar
    24    11    16    1
    25    12    13   ar
    26    12    14    1
    27    13    36    1
    28    14    15    1
    29    15    37    1
    30    15    38    1
    31    15    39    1
    32    16    17    1
    33    17    40    1
    34    17    41    1
    35    17    42    1
    36    18    19    1
    37    19    43    1
    38    19    44    1
    39    19    45    1
    40    20    25   ar
    41    20    21   ar
    42    21    22   ar
    43    21    46    1
    44    22    23   ar
    45    22    47    1
    46    23    24   ar
    47    23    48    1
    48    24    25   ar
    49    24    49    1
    50    25    50    1
    51    26    51    1
    52    26    52    1
    53    26    53    1
    54    26    57    1
    55    27    54    1
    56    27    55    1
    57    27    56    1
    58    27    57    1
    59    57    58    1
