@<TRIPOS>MOLECULE
ZINC00057146
 32 33 0 0 0
SMALL
GASTEIGER

@<TRIPOS>ATOM
      1 C           0.0273    5.4239    0.0310 C.3     1  UNL1        0.0181
      2 N          -0.0121    3.9595    0.0235 N.ar    1  UNL1       -0.2796
      3 C          -1.2307    3.3003    0.0312 C.ar    1  UNL1        0.1678
      4 C          -1.2416    1.9112    0.0183 C.ar    1  UNL1        0.1515
      5 C          -0.0144    1.2138    0.0087 C.ar    1  UNL1        0.2822
      6 O           0.0021   -0.0041    0.0020 O.2     1  UNL1       -0.2652
      7 N           1.1401    1.9121    0.0014 N.ar    1  UNL1       -0.2622
      8 C           1.1359    3.2562    0.0087 C.ar    1  UNL1        0.3331
      9 O           2.1959    3.8522    0.0022 O.2     1  UNL1       -0.2462
     10 C           2.4172    1.1946   -0.0151 C.3     1  UNL1        0.0196
     11 N          -2.5699    1.5351    0.0339 N.ar    1  UNL1       -0.3220
     12 C          -3.2996    2.6677    0.0467 C.ar    1  UNL1        0.0990
     13 N          -2.5030    3.7060    0.0450 N.ar    1  UNL1       -0.2177
     14 C          -3.0877    0.1647    0.0313 C.3     1  UNL1        0.0530
     15 C          -3.1378   -0.3643    1.4661 C.3     1  UNL1        0.0961
     16 H          -3.7193    0.3188    2.0851 H       1  UNL1        0.0634
     17 C          -3.7937   -1.7466    1.4773 C.3     1  UNL1        0.0718
     18 O          -3.9463   -2.1904    2.8271 O.3     1  UNL1       -0.3924
     19 O          -1.8096   -0.4631    1.9840 O.3     1  UNL1       -0.3878
     20 H           1.0644    5.7595    0.0229 H       1  UNL1        0.0458
     21 H          -0.4850    5.8057   -0.8520 H       1  UNL1        0.0458
     22 H          -0.4680    5.7961    0.9278 H       1  UNL1        0.0458
     23 H           2.7240    1.0225   -1.0468 H       1  UNL1        0.0458
     24 H           3.1749    1.7896    0.4947 H       1  UNL1        0.0458
     25 H           2.3031    0.2378    0.4944 H       1  UNL1        0.0458
     26 H          -4.3786    2.7119    0.0572 H       1  UNL1        0.1029
     27 H          -4.0912    0.1563   -0.3943 H       1  UNL1        0.0518
     28 H          -2.4339   -0.4696   -0.5672 H       1  UNL1        0.0518
     29 H          -4.7725   -1.6882    1.0012 H       1  UNL1        0.0583
     30 H          -3.1659   -2.4511    0.9320 H       1  UNL1        0.0583
     31 H          -4.3566   -3.0620    2.9105 H       1  UNL1        0.2095
     32 H          -1.2345   -1.0560    1.4812 H       1  UNL1        0.2100
@<TRIPOS>BOND
     1     1     2    1
     2     1    20    1
     3     1    21    1
     4     1    22    1
     5     2     8   ar
     6     2     3   ar
     7     3    13   ar
     8     3     4   ar
     9     4     5   ar
    10     4    11   ar
    11     5     6    2
    12     5     7   ar
    13     7     8   ar
    14     7    10    1
    15     8     9    2
    16    10    23    1
    17    10    24    1
    18    10    25    1
    19    11    12   ar
    20    11    14    1
    21    12    13   ar
    22    12    26    1
    23    14    15    1
    24    14    27    1
    25    14    28    1
    26    15    16    1
    27    15    17    1
    28    15    19    1
    29    17    18    1
    30    17    29    1
    31    17    30    1
    32    18    31    1
    33    19    32    1
