@<TRIPOS>MOLECULE
ZINC02036738
 44 47 0 0 0
SMALL
GASTEIGER

@<TRIPOS>ATOM
      1 C          -2.3491    3.5726    1.6232 C.3     1  UNL1       -0.0569
      2 C          -1.9927    2.3838    0.7284 C.3     1  UNL1       -0.0030
      3 C          -3.2261    1.5481    0.3765 C.3     1  UNL1       -0.0445
      4 C          -4.1391    2.3145   -0.5764 C.3     1  UNL1       -0.0454
      5 C          -3.3835    2.5676   -1.8864 C.3     1  UNL1       -0.0125
      6 H          -3.0609    1.6191   -2.3156 H       1  UNL1        0.0352
      7 C          -4.3048    3.2709   -2.8513 C.ar    1  UNL1       -0.0406
      8 C          -5.2505    2.5020   -3.5177 C.ar    1  UNL1       -0.0546
      9 C          -6.1310    3.0853   -4.4035 C.ar    1  UNL1       -0.0199
     10 C          -6.0714    4.4528   -4.6315 C.ar    1  UNL1        0.1171
     11 C          -5.1266    5.2176   -3.9695 C.ar    1  UNL1       -0.0167
     12 C          -4.2397    4.6273   -3.0789 C.ar    1  UNL1       -0.0405
     13 C          -3.2344    5.5198   -2.3991 C.3     1  UNL1       -0.0270
     14 C          -2.6392    4.8277   -1.1739 C.3     1  UNL1       -0.0454
     15 C          -2.1658    3.4334   -1.5903 C.3     1  UNL1       -0.0305
     16 H          -1.5999    3.5312   -2.5167 H       1  UNL1        0.0310
     17 C          -1.2609    2.8282   -0.5502 C.3     1  UNL1       -0.0298
     18 H          -0.4970    3.5551   -0.2744 H       1  UNL1        0.0310
     19 C          -0.5752    1.5385   -1.0395 C.3     1  UNL1       -0.0470
     20 C          -0.0925    0.8672    0.2666 C.3     1  UNL1       -0.0261
     21 C          -0.9757    1.4217    1.3998 C.3     1  UNL1        0.0609
     22 H          -0.3636    1.9658    2.1192 H       1  UNL1        0.0599
     23 O          -1.6664    0.3536    2.0509 O.3     1  UNL1       -0.3912
     24 O          -6.9362    5.0382   -5.5011 O.3     1  UNL1       -0.5068
     25 H          -3.1024    4.1863    1.1291 H       1  UNL1        0.0236
     26 H          -2.7427    3.2080    2.5720 H       1  UNL1        0.0236
     27 H          -1.4562    4.1704    1.8059 H       1  UNL1        0.0236
     28 H          -3.7742    1.3142    1.2892 H       1  UNL1        0.0272
     29 H          -2.9074    0.6206   -0.0991 H       1  UNL1        0.0272
     30 H          -4.4200    3.2668   -0.1266 H       1  UNL1        0.0271
     31 H          -5.0350    1.7275   -0.7788 H       1  UNL1        0.0271
     32 H          -5.2963    1.4377   -3.3403 H       1  UNL1        0.0622
     33 H          -6.8640    2.4810   -4.9173 H       1  UNL1        0.0654
     34 H          -5.0791    6.2819   -4.1467 H       1  UNL1        0.0657
     35 H          -3.7254    6.4417   -2.0876 H       1  UNL1        0.0313
     36 H          -2.4347    5.7589   -3.1002 H       1  UNL1        0.0313
     37 H          -3.3982    4.7408   -0.3964 H       1  UNL1        0.0271
     38 H          -1.7944    5.4057   -0.7992 H       1  UNL1        0.0271
     39 H           0.2709    1.7749   -1.6847 H       1  UNL1        0.0269
     40 H          -1.2860    0.8971   -1.5605 H       1  UNL1        0.0269
     41 H          -0.2104   -0.2141    0.1964 H       1  UNL1        0.0290
     42 H           0.9523    1.1174    0.4510 H       1  UNL1        0.0290
     43 H          -1.0833   -0.2956    2.4677 H       1  UNL1        0.2098
     44 H          -6.6147    5.0724   -6.4125 H       1  UNL1        0.2921
@<TRIPOS>BOND
     1     1     2    1
     2     1    25    1
     3     1    26    1
     4     1    27    1
     5     2    17    1
     6     2    21    1
     7     2     3    1
     8     3     4    1
     9     3    28    1
    10     3    29    1
    11     4     5    1
    12     4    30    1
    13     4    31    1
    14     5     6    1
    15     5    15    1
    16     5     7    1
    17     7    12   ar
    18     7     8   ar
    19     8     9   ar
    20     8    32    1
    21     9    10   ar
    22     9    33    1
    23    10    11   ar
    24    10    24    1
    25    11    12   ar
    26    11    34    1
    27    12    13    1
    28    13    14    1
    29    13    35    1
    30    13    36    1
    31    14    15    1
    32    14    37    1
    33    14    38    1
    34    15    16    1
    35    15    17    1
    36    17    18    1
    37    17    19    1
    38    19    20    1
    39    19    39    1
    40    19    40    1
    41    20    21    1
    42    20    41    1
    43    20    42    1
    44    21    22    1
    45    21    23    1
    46    23    43    1
    47    24    44    1
