@<TRIPOS>MOLECULE
ZINC03830637
 62 65 0 0 0
SMALL
GASTEIGER

@<TRIPOS>ATOM
      1 C          -0.6691   -0.0786    6.8894 C.3     1  UNL1       -0.0621
      2 C           0.6227   -0.8944    6.8080 C.3     1  UNL1       -0.0398
      3 H           0.5104   -1.6791    6.0598 H       1  UNL1        0.0301
      4 C           0.9133   -1.5266    8.1706 C.3     1  UNL1       -0.0451
      5 C          -0.1714   -2.5550    8.4974 C.3     1  UNL1       -0.0130
      6 C           0.1148   -3.1777    9.8395 C.2     1  UNL1        0.0418
      7 O           1.0867   -2.8343   10.4699 O.co2   1  UNL1       -0.5498
      8 C           1.7788    0.0214    6.4151 C.3     1  UNL1       -0.0261
      9 H           2.7226   -0.5221    6.4299 H       1  UNL1        0.0313
     10 C           1.8431    1.2456    7.3649 C.3     1  UNL1       -0.0488
     11 C           1.3619    2.4737    6.5386 C.3     1  UNL1       -0.0484
     12 C           0.6293    1.8235    5.3628 C.3     1  UNL1       -0.0189
     13 H          -0.3117    1.4086    5.7812 H       1  UNL1        0.0317
     14 C           1.5526    0.6338    5.0262 C.3     1  UNL1        0.0327
     15 C           0.9003   -0.2504    4.0137 C.2     1  UNL1        0.1400
     16 O           1.1641   -1.4339    3.9101 O.2     1  UNL1       -0.2968
     17 C          -0.1150    0.4222    3.0864 C.3     1  UNL1        0.0104
     18 C           0.3500    1.8608    2.8794 C.3     1  UNL1       -0.0189
     19 H           1.4034    1.8326    2.5967 H       1  UNL1        0.0317
     20 C           0.2379    2.6438    4.1866 C.3     1  UNL1        0.0249
     21 H          -0.7268    2.8959    4.2622 H       1  UNL1        0.0383
     22 C           0.9233    3.9741    4.0277 C.2     1  UNL1        0.1373
     23 O           1.5506    4.5101    4.9053 O.2     1  UNL1       -0.2971
     24 C           0.7657    4.6322    2.6578 C.3     1  UNL1        0.0098
     25 C          -0.5092    4.0556    2.0515 C.3     1  UNL1       -0.0220
     26 H          -1.3032    4.1490    2.8100 H       1  UNL1        0.0314
     27 C          -0.3531    2.5704    1.7398 C.3     1  UNL1       -0.0242
     28 C          -1.7146    1.9718    1.4192 C.3     1  UNL1       -0.0404
     29 C          -2.3012    2.6481    0.1745 C.3     1  UNL1        0.0063
     30 C          -2.2358    4.1506    0.3062 C.2     1  UNL1        0.1337
     31 O          -3.1921    4.8285    0.0040 O.2     1  UNL1       -0.2974
     32 C          -0.9718    4.8141    0.8150 C.3     1  UNL1        0.0095
     33 C           0.5482    2.4108    0.5124 C.3     1  UNL1       -0.0590
     34 C           2.9134    1.1134    4.5071 C.3     1  UNL1       -0.0523
     35 H          -0.4649    0.8783    7.3698 H       1  UNL1        0.0233
     36 H          -1.0536    0.0942    5.8842 H       1  UNL1        0.0233
     37 H          -1.4091   -0.6272    7.4721 H       1  UNL1        0.0233
     38 H           1.8849   -2.0199    8.1425 H       1  UNL1        0.0271
     39 H           0.9215   -0.7512    8.9366 H       1  UNL1        0.0271
     40 H          -1.1430   -2.0617    8.5255 H       1  UNL1        0.0325
     41 H          -0.1796   -3.3304    7.7314 H       1  UNL1        0.0325
     42 H           2.8684    1.4026    7.7017 H       1  UNL1        0.0268
     43 H           1.1882    1.0905    8.2229 H       1  UNL1        0.0268
     44 H           2.2070    3.0700    6.2112 H       1  UNL1        0.0268
     45 H           0.6728    3.0816    7.1291 H       1  UNL1        0.0268
     46 H          -1.0202    0.3996    3.5109 H       1  UNL1        0.0345
     47 H          -0.1472   -0.1054    2.1321 H       1  UNL1        0.0345
     48 H           0.6898    5.6229    2.7707 H       1  UNL1        0.0345
     49 H           1.6293    4.4116    2.0398 H       1  UNL1        0.0345
     50 H          -1.6106    0.8995    1.2315 H       1  UNL1        0.0275
     51 H          -2.3880    2.1113    2.2697 H       1  UNL1        0.0275
     52 H          -3.2631    2.3921    0.0781 H       1  UNL1        0.0342
     53 H          -1.7850    2.3251   -0.7266 H       1  UNL1        0.0342
     54 H          -1.1711    5.7627    1.0610 H       1  UNL1        0.0345
     55 H          -0.2083    4.8309    0.0439 H       1  UNL1        0.0345
     56 H           0.6782    1.3512    0.2924 H       1  UNL1        0.0235
     57 H           1.5198    2.8620    0.7139 H       1  UNL1        0.0235
     58 H           0.0882    2.9058   -0.3429 H       1  UNL1        0.0235
     59 H           3.3984    1.7236    5.2690 H       1  UNL1        0.0239
     60 H           3.5398    0.2509    4.2793 H       1  UNL1        0.0239
     61 H           2.7694    1.7065    3.6040 H       1  UNL1        0.0239
     62 O          -0.7099   -4.1139   10.3346 O.co2   1  UNL1       -0.5498
@<TRIPOS>UNITY_ATOM_ATTR
62 1
charge -1
@<TRIPOS>BOND
     1     1     2    1
     2     1    35    1
     3     1    36    1
     4     1    37    1
     5     2     3    1
     6     2     4    1
     7     2     8    1
     8     4     5    1
     9     4    38    1
    10     4    39    1
    11     5     6    1
    12     5    40    1
    13     5    41    1
    14     6     7   ar
    15     6    62   ar
    16     8     9    1
    17     8    14    1
    18     8    10    1
    19    10    11    1
    20    10    42    1
    21    10    43    1
    22    11    12    1
    23    11    44    1
    24    11    45    1
    25    12    13    1
    26    12    20    1
    27    12    14    1
    28    14    15    1
    29    14    34    1
    30    15    16    2
    31    15    17    1
    32    17    18    1
    33    17    46    1
    34    17    47    1
    35    18    19    1
    36    18    27    1
    37    18    20    1
    38    20    21    1
    39    20    22    1
    40    22    23    2
    41    22    24    1
    42    24    25    1
    43    24    48    1
    44    24    49    1
    45    25    26    1
    46    25    32    1
    47    25    27    1
    48    27    28    1
    49    27    33    1
    50    28    29    1
    51    28    50    1
    52    28    51    1
    53    29    30    1
    54    29    52    1
    55    29    53    1
    56    30    31    2
    57    30    32    1
    58    32    54    1
    59    32    55    1
    60    33    56    1
    61    33    57    1
    62    33    58    1
    63    34    59    1
    64    34    60    1
    65    34    61    1
