@<TRIPOS>MOLECULE
ZINC03830601
 54 57 0 0 0
SMALL
GASTEIGER

@<TRIPOS>ATOM
      1 C          -5.4485    3.3500    2.5337 C.3     1  UNL1       -0.0552
      2 C          -4.7176    4.4157    1.7146 C.3     1  UNL1       -0.0005
      3 C          -5.7805    5.0659    0.8619 C.3     1  UNL1       -0.0363
      4 C          -5.4579    6.5275    0.5517 C.3     1  UNL1        0.0107
      5 C          -5.2518    7.2431    1.8730 C.2     1  UNL1        0.1561
      6 O          -5.8392    8.2693    2.1450 O.2     1  UNL1       -0.2927
      7 C          -4.2636    6.6487    2.7753 C.2     1  UNL1       -0.0194
      8 C          -4.0324    5.3426    2.6927 C.2     1  UNL1       -0.0597
      9 C          -3.0280    4.7020    3.6273 C.3     1  UNL1       -0.0305
     10 C          -2.0037    3.9323    2.8193 C.3     1  UNL1       -0.0456
     11 C          -2.5626    3.0540    1.7200 C.3     1  UNL1       -0.0270
     12 H          -2.9244    2.1259    2.1624 H       1  UNL1        0.0311
     13 C          -3.6827    3.6776    0.9091 C.3     1  UNL1        0.0297
     14 H          -4.1051    2.8843    0.4707 H       1  UNL1        0.0389
     15 C          -3.1429    4.4720   -0.2513 C.2     1  UNL1        0.1381
     16 O          -3.2809    5.6691   -0.3293 O.2     1  UNL1       -0.2971
     17 C          -2.4092    3.6675   -1.3232 C.3     1  UNL1        0.0148
     18 C          -1.9846    2.3769   -0.6316 C.3     1  UNL1        0.0134
     19 C          -1.4173    2.7266    0.7619 C.3     1  UNL1       -0.0286
     20 H          -0.7335    3.5724    0.6898 H       1  UNL1        0.0310
     21 C          -0.6572    1.4440    1.1406 C.3     1  UNL1       -0.0463
     22 C           0.0087    1.0168   -0.1922 C.3     1  UNL1       -0.0162
     23 C          -0.8301    1.6504   -1.3258 C.3     1  UNL1        0.1318
     24 C           0.0074    2.6292   -2.1079 C.2     1  UNL1        0.1902
     25 O           0.8906    3.2424   -1.5582 O.2     1  UNL1       -0.2919
     26 C          -0.2573    2.8428   -3.5760 C.3     1  UNL1        0.1052
     27 O           0.6602    3.8105   -4.0896 O.3     1  UNL1       -0.3874
     28 O          -1.3370    0.6333   -2.1921 O.3     1  UNL1       -0.3804
     29 C          -3.1856    1.4383   -0.4981 C.3     1  UNL1       -0.0559
     30 H          -4.7366    2.8371    3.1805 H       1  UNL1        0.0238
     31 H          -6.2172    3.8244    3.1437 H       1  UNL1        0.0238
     32 H          -5.9125    2.6291    1.8605 H       1  UNL1        0.0238
     33 H          -5.8673    4.5162   -0.0754 H       1  UNL1        0.0278
     34 H          -6.7341    5.0180    1.3877 H       1  UNL1        0.0278
     35 H          -4.6295    6.5748   -0.0065 H       1  UNL1        0.0345
     36 H          -6.2875    6.9824    0.0104 H       1  UNL1        0.0345
     37 H          -3.7587    7.2478    3.5186 H       1  UNL1        0.0652
     38 H          -3.5442    4.0202    4.3031 H       1  UNL1        0.0310
     39 H          -2.5259    5.4767    4.2068 H       1  UNL1        0.0310
     40 H          -1.4330    3.3030    3.5022 H       1  UNL1        0.0271
     41 H          -1.3167    4.6484    2.3681 H       1  UNL1        0.0271
     42 H          -1.6243    4.1913   -1.6542 H       1  UNL1        0.0348
     43 H          -3.0758    3.4481   -2.1572 H       1  UNL1        0.0348
     44 H          -1.3485    0.6763    1.4882 H       1  UNL1        0.0269
     45 H           0.0984    1.6535    1.8978 H       1  UNL1        0.0269
     46 H          -0.0001   -0.0694   -0.2831 H       1  UNL1        0.0297
     47 H           1.0332    1.3867   -0.2336 H       1  UNL1        0.0297
     48 H          -0.1389    1.9787   -4.0652 H       1  UNL1        0.0637
     49 H          -1.2777    3.2010   -3.7128 H       1  UNL1        0.0637
     50 H           0.5475    3.9981   -5.0315 H       1  UNL1        0.2100
     51 H          -0.6505    0.1153   -2.6344 H       1  UNL1        0.2108
     52 H          -3.2161    1.0287    0.5115 H       1  UNL1        0.0236
     53 H          -4.1035    1.9929   -0.6931 H       1  UNL1        0.0236
     54 H          -3.0927    0.6249   -1.2177 H       1  UNL1        0.0236
@<TRIPOS>BOND
     1     1     2    1
     2     1    30    1
     3     1    31    1
     4     1    32    1
     5     2     8    1
     6     2    13    1
     7     2     3    1
     8     3     4    1
     9     3    33    1
    10     3    34    1
    11     4     5    1
    12     4    35    1
    13     4    36    1
    14     5     6    2
    15     5     7    1
    16     7     8    2
    17     7    37    1
    18     8     9    1
    19     9    10    1
    20     9    38    1
    21     9    39    1
    22    10    11    1
    23    10    40    1
    24    10    41    1
    25    11    12    1
    26    11    19    1
    27    11    13    1
    28    13    14    1
    29    13    15    1
    30    15    16    2
    31    15    17    1
    32    17    18    1
    33    17    42    1
    34    17    43    1
    35    18    23    1
    36    18    19    1
    37    18    29    1
    38    19    20    1
    39    19    21    1
    40    21    22    1
    41    21    44    1
    42    21    45    1
    43    22    23    1
    44    22    46    1
    45    22    47    1
    46    23    24    1
    47    23    28    1
    48    24    25    2
    49    24    26    1
    50    26    27    1
    51    26    48    1
    52    26    49    1
    53    27    50    1
    54    28    51    1
    55    29    52    1
    56    29    53    1
    57    29    54    1
