@<TRIPOS>MOLECULE
ZINC03831403
 49 52 0 0 0
SMALL
GASTEIGER

@<TRIPOS>ATOM
      1 C          -1.7520   -4.2121    3.9740 C.3     1  UNL1        0.0788
      2 O          -1.2298   -2.9878    3.4539 O.3     1  UNL1       -0.4951
      3 C          -2.1164   -2.1346    2.8771 C.ar    1  UNL1        0.1208
      4 C          -3.4701   -2.4803    2.8177 C.ar    1  UNL1       -0.0179
      5 C          -4.3813   -1.6482    2.2467 C.ar    1  UNL1       -0.0323
      6 C          -3.9636   -0.4187    1.7062 C.ar    1  UNL1        0.0715
      7 C          -2.5916   -0.0681    1.7667 C.ar    1  UNL1        0.0097
      8 C          -1.6752   -0.9487    2.3622 C.ar    1  UNL1       -0.0104
      9 C          -2.1774    1.1633    1.2250 C.ar    1  UNL1       -0.0031
     10 C          -3.1251    1.9729    0.6659 C.ar    1  UNL1       -0.0372
     11 C          -4.4569    1.5658    0.6357 C.ar    1  UNL1        0.0286
     12 N          -4.8391    0.4180    1.1407 N.ar    1  UNL1       -0.2550
     13 C          -0.7297    1.5797    1.2662 C.3     1  UNL1        0.1232
     14 H          -0.2198    1.0428    2.0661 H       1  UNL1        0.0701
     15 C          -0.0661    1.2506   -0.0726 C.3     1  UNL1        0.0102
     16 H          -0.6391    1.7012   -0.8830 H       1  UNL1        0.0880
     17 C          -0.0220   -0.2685   -0.2612 C.3     1  UNL1       -0.0032
     18 C           1.4412   -0.7080   -0.3985 C.3     1  UNL1       -0.0200
     19 H           1.4974   -1.7889   -0.5270 H       1  UNL1        0.0312
     20 C           2.1992   -0.2870    0.8669 C.3     1  UNL1       -0.0088
     21 C           2.0941    1.2325    1.0239 C.3     1  UNL1       -0.0312
     22 C           1.9573    1.5266   -1.3759 C.3     1  UNL1       -0.0249
     23 C           2.0584    0.0155   -1.6020 C.3     1  UNL1        0.0203
     24 H           3.1057   -0.2695   -1.7017 H       1  UNL1        0.0398
     25 C           1.3091   -0.3588   -2.8548 C.2     1  UNL1       -0.0828
     26 C           1.9381   -0.9430   -3.8444 C.2     1  UNL1       -0.1022
     27 O          -0.6451    2.9857    1.5069 O.3     1  UNL1       -0.3815
     28 H          -2.4917   -3.9935    4.7442 H       1  UNL1        0.0660
     29 H          -2.2217   -4.7777    3.1692 H       1  UNL1        0.0660
     30 H          -0.9410   -4.7989    4.4052 H       1  UNL1        0.0660
     31 H          -3.7967   -3.4230    3.2315 H       1  UNL1        0.0655
     32 H          -5.4232   -1.9303    2.2090 H       1  UNL1        0.0640
     33 H          -0.6277   -0.6906    2.4128 H       1  UNL1        0.0661
     34 H          -2.8415    2.9262    0.2450 H       1  UNL1        0.0636
     35 H          -5.1947    2.2145    0.1872 H       1  UNL1        0.0830
     36 H          -0.4705   -0.7571    0.6037 H       1  UNL1        0.0324
     37 H          -0.5732   -0.5409   -1.1612 H       1  UNL1        0.0324
     38 H           1.7585   -0.7753    1.7360 H       1  UNL1        0.0320
     39 H           3.2471   -0.5733    0.7770 H       1  UNL1        0.0320
     40 H           1.6065    1.4676    1.9700 H       1  UNL1        0.0814
     41 H           3.0926    1.6695    1.0105 H       1  UNL1        0.0814
     42 H           1.3701    1.9758   -2.1769 H       1  UNL1        0.0820
     43 H           2.9569    1.9611   -1.3696 H       1  UNL1        0.0820
     44 H           0.2536   -0.1454   -2.9369 H       1  UNL1        0.0571
     45 H           2.9936   -1.1565   -3.7623 H       1  UNL1        0.0532
     46 H           1.4011   -1.2113   -4.7422 H       1  UNL1        0.0532
     47 H          -1.1387    3.5237    0.8728 H       1  UNL1        0.2105
     48 N           1.3020    1.8121   -0.0817 N.4     1  UNL1        0.2399
     49 H           1.2455    2.8293    0.0462 H       1  UNL1        0.2037
@<TRIPOS>UNITY_ATOM_ATTR
48 1
charge 1
@<TRIPOS>BOND
     1     1     2    1
     2     1    28    1
     3     1    29    1
     4     1    30    1
     5     2     3    1
     6     3     8   ar
     7     3     4   ar
     8     4     5   ar
     9     4    31    1
    10     5     6   ar
    11     5    32    1
    12     6    12   ar
    13     6     7   ar
    14     7     8   ar
    15     7     9   ar
    16     8    33    1
    17     9    10   ar
    18     9    13    1
    19    10    11   ar
    20    10    34    1
    21    11    12   ar
    22    11    35    1
    23    13    14    1
    24    13    15    1
    25    13    27    1
    26    15    16    1
    27    15    17    1
    28    15    48    1
    29    17    18    1
    30    17    36    1
    31    17    37    1
    32    18    19    1
    33    18    23    1
    34    18    20    1
    35    20    21    1
    36    20    38    1
    37    20    39    1
    38    21    40    1
    39    21    41    1
    40    21    48    1
    41    22    23    1
    42    22    42    1
    43    22    43    1
    44    22    48    1
    45    23    24    1
    46    23    25    1
    47    25    26    2
    48    25    44    1
    49    26    45    1
    50    26    46    1
    51    27    47    1
    52    48    49    1
