@<TRIPOS>MOLECULE
ZINC00154729
 26 25 0 0 0
SMALL
GASTEIGER

@<TRIPOS>ATOM
      1 C          -0.9215    2.9740   -0.9822 C.3     1  UNL1       -0.0417
      2 N          -0.7842    1.5173   -1.1134 N.4     1  UNL1        0.2387
      3 C          -0.1685    1.1981   -2.4084 C.3     1  UNL1       -0.0417
      4 C          -2.1108    0.8914   -1.0343 C.3     1  UNL1       -0.0417
      5 C           0.0640    1.0058   -0.0286 C.3     1  UNL1       -0.0039
      6 C          -0.5055    1.4543    1.3188 C.3     1  UNL1        0.0999
      7 H          -0.6402    2.5359    1.3144 H       1  UNL1        0.0650
      8 C           0.4638    1.0655    2.4370 C.3     1  UNL1        0.0179
      9 C          -0.0363    1.6141    3.7485 C.2     1  UNL1        0.0444
     10 O          -1.0626    2.2507    3.7851 O.co2   1  UNL1       -0.5497
     11 O          -1.7661    0.8182    1.5386 O.3     1  UNL1       -0.3862
     12 H           0.0629    3.4385   -1.0409 H       1  UNL1        0.0778
     13 H          -1.5508    3.3536   -1.7872 H       1  UNL1        0.0778
     14 H          -1.3783    3.2109   -0.0213 H       1  UNL1        0.0778
     15 H          -0.0667    0.1173   -2.5057 H       1  UNL1        0.0778
     16 H          -0.7979    1.5777   -3.2133 H       1  UNL1        0.0778
     17 H           0.8158    1.6626   -2.4670 H       1  UNL1        0.0778
     18 H          -2.6349    1.2607   -0.1528 H       1  UNL1        0.0778
     19 H          -2.6835    1.1396   -1.9280 H       1  UNL1        0.0778
     20 H          -1.9985   -0.1905   -0.9636 H       1  UNL1        0.0778
     21 H           0.0877   -0.0832   -0.0686 H       1  UNL1        0.0840
     22 H           1.0754    1.3957   -0.1434 H       1  UNL1        0.0840
     23 H           0.5300   -0.0207    2.4991 H       1  UNL1        0.0352
     24 H           1.4497    1.4780    2.2229 H       1  UNL1        0.0352
     25 H          -1.7218   -0.1477    1.5549 H       1  UNL1        0.2100
     26 O           0.6584    1.3956    4.8760 O.co2   1  UNL1       -0.5497
@<TRIPOS>UNITY_ATOM_ATTR
2 1
charge 1
26 1
charge -1
@<TRIPOS>BOND
     1     1     2    1
     2     1    12    1
     3     1    13    1
     4     1    14    1
     5     2     3    1
     6     2     4    1
     7     2     5    1
     8     3    15    1
     9     3    16    1
    10     3    17    1
    11     4    18    1
    12     4    19    1
    13     4    20    1
    14     5     6    1
    15     5    21    1
    16     5    22    1
    17     6     7    1
    18     6     8    1
    19     6    11    1
    20     8     9    1
    21     8    23    1
    22     8    24    1
    23     9    10   ar
    24     9    26   ar
    25    11    25    1
