@<TRIPOS>MOLECULE
ZINC02522669
 54 56 0 0 0
SMALL
GASTEIGER

@<TRIPOS>ATOM
      1 C           0.9775    1.6672    0.1324 C.3     1  UNL1       -0.0570
      2 C           0.5824    0.1907    0.0617 C.3     1  UNL1        0.0217
      3 C           0.9969   -0.5017    1.3344 C.2     1  UNL1        0.2198
      4 O           1.5192    0.1319    2.2271 O.2     1  UNL1       -0.2753
      5 N           0.7872   -1.8250    1.4807 N.am    1  UNL1       -0.2680
      6 C           0.2770   -2.5745    0.4150 C.ar    1  UNL1        0.0366
      7 C          -1.0765   -2.5179    0.1095 C.ar    1  UNL1       -0.0403
      8 C          -1.5760   -3.2545   -0.9467 C.ar    1  UNL1       -0.0600
      9 C          -0.7319   -4.0569   -1.6922 C.ar    1  UNL1       -0.0616
     10 C           0.6154   -4.1195   -1.3873 C.ar    1  UNL1       -0.0600
     11 C           1.1221   -3.3810   -0.3360 C.ar    1  UNL1       -0.0403
     12 C           1.0934   -2.4786    2.7556 C.3     1  UNL1        0.0407
     13 C           0.2296   -1.8693    3.8634 C.3     1  UNL1        0.0067
     14 C           0.5982   -2.5121    5.2025 C.3     1  UNL1       -0.0302
     15 C           2.8709   -2.9012    4.4572 C.3     1  UNL1       -0.0302
     16 C           2.5714   -2.2689    3.0961 C.3     1  UNL1        0.0067
     17 C           2.3781   -2.7668    6.8235 C.3     1  UNL1       -0.0278
     18 C           1.6538   -1.9276    7.8781 C.3     1  UNL1        0.0127
     19 C           2.0198   -2.4238    9.2531 C.ar    1  UNL1       -0.0423
     20 C           1.2607   -3.4084    9.8574 C.ar    1  UNL1       -0.0584
     21 C           1.5993   -3.8669   11.1168 C.ar    1  UNL1       -0.0615
     22 C           2.6911   -3.3338   11.7760 C.ar    1  UNL1       -0.0617
     23 C           3.4469   -2.3452   11.1741 C.ar    1  UNL1       -0.0615
     24 C           3.1114   -1.8903    9.9126 C.ar    1  UNL1       -0.0584
     25 H           2.0575    1.7488    0.2553 H       1  UNL1        0.0234
     26 H           0.6777    2.1680   -0.7882 H       1  UNL1        0.0234
     27 H           0.4788    2.1365    0.9804 H       1  UNL1        0.0234
     28 H          -0.4976    0.1091   -0.0612 H       1  UNL1        0.0356
     29 H           1.0811   -0.2786   -0.7863 H       1  UNL1        0.0356
     30 H          -1.7372   -1.8954    0.6947 H       1  UNL1        0.0636
     31 H          -2.6278   -3.2077   -1.1873 H       1  UNL1        0.0618
     32 H          -1.1257   -4.6357   -2.5146 H       1  UNL1        0.0618
     33 H           1.2722   -4.7469   -1.9717 H       1  UNL1        0.0618
     34 H           2.1745   -3.4303   -0.0983 H       1  UNL1        0.0636
     35 H           0.8855   -3.5457    2.6769 H       1  UNL1        0.0508
     36 H           0.4082   -0.7953    3.9150 H       1  UNL1        0.0335
     37 H          -0.8227   -2.0539    3.6474 H       1  UNL1        0.0335
     38 H           0.4052   -3.5839    5.1551 H       1  UNL1        0.0815
     39 H          -0.0042   -2.0696    5.9958 H       1  UNL1        0.0815
     40 H           2.6673   -3.9711    4.4133 H       1  UNL1        0.0815
     41 H           3.9193   -2.7412    4.7092 H       1  UNL1        0.0815
     42 H           3.1910   -2.7387    2.3323 H       1  UNL1        0.0335
     43 H           2.7881   -1.2013    3.1346 H       1  UNL1        0.0335
     44 H           2.0817   -3.8109    6.9238 H       1  UNL1        0.0818
     45 H           3.4551   -2.6795    6.9665 H       1  UNL1        0.0818
     46 H           1.9502   -0.8834    7.7778 H       1  UNL1        0.0365
     47 H           0.5768   -2.0149    7.7350 H       1  UNL1        0.0365
     48 H           0.4052   -3.8220    9.3440 H       1  UNL1        0.0620
     49 H           1.0085   -4.6390   11.5872 H       1  UNL1        0.0618
     50 H           2.9534   -3.6895   12.7614 H       1  UNL1        0.0618
     51 H           4.2997   -1.9285   11.6893 H       1  UNL1        0.0618
     52 H           3.7019   -1.1180    9.4423 H       1  UNL1        0.0620
     53 N           2.0266   -2.2536    5.4833 N.4     1  UNL1        0.2356
     54 H           2.1925   -1.2406    5.4602 H       1  UNL1        0.2033
@<TRIPOS>UNITY_ATOM_ATTR
53 1
charge 1
@<TRIPOS>BOND
     1     1     2    1
     2     1    25    1
     3     1    26    1
     4     1    27    1
     5     2     3    1
     6     2    28    1
     7     2    29    1
     8     3     4    2
     9     3     5   am
    10     5     6    1
    11     5    12    1
    12     6    11   ar
    13     6     7   ar
    14     7     8   ar
    15     7    30    1
    16     8     9   ar
    17     8    31    1
    18     9    10   ar
    19     9    32    1
    20    10    11   ar
    21    10    33    1
    22    11    34    1
    23    12    16    1
    24    12    13    1
    25    12    35    1
    26    13    14    1
    27    13    36    1
    28    13    37    1
    29    14    38    1
    30    14    39    1
    31    14    53    1
    32    15    16    1
    33    15    40    1
    34    15    41    1
    35    15    53    1
    36    16    42    1
    37    16    43    1
    38    17    18    1
    39    17    44    1
    40    17    45    1
    41    17    53    1
    42    18    19    1
    43    18    46    1
    44    18    47    1
    45    19    24   ar
    46    19    20   ar
    47    20    21   ar
    48    20    48    1
    49    21    22   ar
    50    21    49    1
    51    22    23   ar
    52    22    50    1
    53    23    24   ar
    54    23    51    1
    55    24    52    1
    56    53    54    1
