@<TRIPOS>MOLECULE
ZINC12503063
 18 17 0 0 0
SMALL
GASTEIGER

@<TRIPOS>ATOM
      1 C          -2.7577    3.2755   -1.6208 C.3     1  UNL1       -0.0614
      2 C          -1.4263    2.5607   -1.3811 C.3     1  UNL1       -0.0117
      3 C          -1.4278    1.9342    0.0147 C.3     1  UNL1        0.1456
      4 C          -0.0739    1.3363    0.2984 C.2     1  UNL1       -0.0297
      5 C           0.0166    0.1483    0.8468 C.2     1  UNL1        0.0043
      6 CL         -1.4090   -0.6439    1.4418 Cl      1  UNL1       -0.0921
      7 C          -1.7267    2.9698    1.0171 C.1     1  UNL1       -0.0667
      8 C          -1.9651    3.7959    1.8165 C.1     1  UNL1       -0.1160
      9 O          -2.4229    0.9104    0.0762 O.3     1  UNL1       -0.3730
     10 H          -2.7566    3.7218   -2.6152 H       1  UNL1        0.0231
     11 H          -3.5742    2.5573   -1.5458 H       1  UNL1        0.0231
     12 H          -2.8907    4.0564   -0.8721 H       1  UNL1        0.0231
     13 H          -0.6097    3.2788   -1.4562 H       1  UNL1        0.0303
     14 H          -1.2933    1.7797   -2.1298 H       1  UNL1        0.0303
     15 H           0.8220    1.8842    0.0462 H       1  UNL1        0.0619
     16 H           0.9779   -0.3371    0.9282 H       1  UNL1        0.0744
     17 H          -2.1783    4.5346    2.5316 H       1  UNL1        0.1229
     18 H          -2.3484    0.2470   -0.6234 H       1  UNL1        0.2117
@<TRIPOS>BOND
     1     1     2    1
     2     1    10    1
     3     1    11    1
     4     1    12    1
     5     2     3    1
     6     2    13    1
     7     2    14    1
     8     3     4    1
     9     3     7    1
    10     3     9    1
    11     4     5    2
    12     4    15    1
    13     5     6    1
    14     5    16    1
    15     7     8    3
    16     8    17    1
    17     9    18    1
