@<TRIPOS>MOLECULE
ZINC03830312
 71 74 0 0 0
SMALL
GASTEIGER

@<TRIPOS>ATOM
      1 C           3.4475   -6.9090    4.1820 C.3     1  UNL1       -0.0653
      2 C           3.9666   -5.7309    5.0087 C.3     1  UNL1       -0.0554
      3 C           2.9631   -4.5780    4.9398 C.3     1  UNL1       -0.0432
      4 C           3.4822   -3.3999    5.7665 C.3     1  UNL1        0.0450
      5 C           2.4938   -2.2643    5.6986 C.2     1  UNL1        0.3080
      6 O           1.4783   -2.3849    5.0550 O.2     1  UNL1       -0.2508
      7 O           2.7415   -1.1189    6.3531 O.3     1  UNL1       -0.4494
      8 C           1.8057   -0.0271    6.1489 C.3     1  UNL1        0.1810
      9 C           2.2593    1.2175    6.9563 C.3     1  UNL1        0.0041
     10 H           1.5040    1.4606    7.7058 H       1  UNL1        0.0341
     11 C           2.3735    2.3839    5.9361 C.3     1  UNL1       -0.0426
     12 C           1.4559    1.9049    4.7988 C.3     1  UNL1       -0.0253
     13 H           0.4143    1.9496    5.1936 H       1  UNL1        0.0311
     14 C           1.8654    0.4251    4.6765 C.3     1  UNL1        0.0208
     15 C           0.9861   -0.3006    3.7036 C.3     1  UNL1       -0.0141
     16 C           0.7062    0.4984    2.4242 C.3     1  UNL1        0.0910
     17 H          -0.3705    0.7443    2.4177 H       1  UNL1        0.0626
     18 C           1.5044    1.7688    2.2765 C.3     1  UNL1        0.1526
     19 C           1.4848    2.6553    3.5152 C.3     1  UNL1        0.0003
     20 H           0.5464    3.2574    3.4619 H       1  UNL1        0.0336
     21 C           2.6383    3.6535    3.3761 C.3     1  UNL1       -0.0432
     22 C           2.2297    4.6705    2.3097 C.3     1  UNL1       -0.0301
     23 C           1.3745    4.0652    1.2296 C.2     1  UNL1       -0.0532
     24 C           0.8278    4.9253    0.3483 C.2     1  UNL1       -0.0148
     25 C          -0.1387    4.4151   -0.6481 C.2     1  UNL1        0.1787
     26 O          -0.3955    5.0388   -1.6725 O.2     1  UNL1       -0.2879
     27 C          -0.8246    3.1376   -0.3426 C.2     1  UNL1       -0.0180
     28 C          -0.2260    2.2819    0.5063 C.2     1  UNL1       -0.0674
     29 C           1.1126    2.6065    1.0728 C.3     1  UNL1        0.0443
     30 C           2.1140    2.1665   -0.0055 C.3     1  UNL1       -0.0493
     31 F           2.8352    1.4267    1.9891 F       1  UNL1       -0.2377
     32 O           0.9465   -0.3632    1.2973 O.3     1  UNL1       -0.3886
     33 C           3.3401    0.2689    4.2683 C.3     1  UNL1       -0.0551
     34 C           3.6019    0.9585    7.6362 C.3     1  UNL1       -0.0583
     35 C           0.4236   -0.4351    6.5656 C.2     1  UNL1        0.2024
     36 O          -0.5393    0.0627    6.0332 O.2     1  UNL1       -0.2907
     37 C           0.2367   -1.4661    7.6487 C.3     1  UNL1        0.1063
     38 O          -1.1547   -1.7579    7.7936 O.3     1  UNL1       -0.3874
     39 H           2.4880   -7.2381    4.5810 H       1  UNL1        0.0230
     40 H           3.3223   -6.5978    3.1449 H       1  UNL1        0.0230
     41 H           4.1624   -7.7303    4.2311 H       1  UNL1        0.0230
     42 H           4.9261   -5.4018    4.6097 H       1  UNL1        0.0263
     43 H           4.0918   -6.0420    6.0458 H       1  UNL1        0.0263
     44 H           2.0036   -4.9071    5.3388 H       1  UNL1        0.0270
     45 H           2.8379   -4.2669    3.9027 H       1  UNL1        0.0270
     46 H           4.4417   -3.0708    5.3675 H       1  UNL1        0.0377
     47 H           3.6074   -3.7110    6.8036 H       1  UNL1        0.0377
     48 H           3.3944    2.5243    5.6039 H       1  UNL1        0.0272
     49 H           1.9842    3.3065    6.3716 H       1  UNL1        0.0272
     50 H           0.0190   -0.5675    4.1482 H       1  UNL1        0.0298
     51 H           1.4690   -1.2555    3.4264 H       1  UNL1        0.0298
     52 H           2.8026    4.1651    4.3260 H       1  UNL1        0.0272
     53 H           3.5488    3.1393    3.0714 H       1  UNL1        0.0272
     54 H           1.6684    5.4779    2.7858 H       1  UNL1        0.0310
     55 H           3.1266    5.0916    1.8546 H       1  UNL1        0.0310
     56 H           1.0543    5.9935    0.4027 H       1  UNL1        0.0656
     57 H          -1.7599    2.8657   -0.8294 H       1  UNL1        0.0653
     58 H          -0.7378    1.3534    0.7640 H       1  UNL1        0.0583
     59 H           2.0045    1.0976   -0.1887 H       1  UNL1        0.0242
     60 H           3.1286    2.3748    0.3342 H       1  UNL1        0.0242
     61 H           1.9198    2.7148   -0.9273 H       1  UNL1        0.0242
     62 H           0.4618   -1.1992    1.3309 H       1  UNL1        0.2099
     63 H           3.5821    0.9976    3.4947 H       1  UNL1        0.0237
     64 H           3.9772    0.4360    5.1369 H       1  UNL1        0.0237
     65 H           3.5062   -0.7375    3.8842 H       1  UNL1        0.0237
     66 H           3.8751    1.8225    8.2419 H       1  UNL1        0.0234
     67 H           3.5223    0.0781    8.2740 H       1  UNL1        0.0234
     68 H           4.3666    0.7898    6.8780 H       1  UNL1        0.0234
     69 H           0.7285   -2.3012    7.4024 H       1  UNL1        0.0638
     70 H           0.6267   -1.0790    8.5901 H       1  UNL1        0.0638
     71 H          -1.3498   -2.4154    8.4752 H       1  UNL1        0.2100
@<TRIPOS>BOND
     1     1     2    1
     2     1    39    1
     3     1    40    1
     4     1    41    1
     5     2     3    1
     6     2    42    1
     7     2    43    1
     8     3     4    1
     9     3    44    1
    10     3    45    1
    11     4     5    1
    12     4    46    1
    13     4    47    1
    14     5     6    2
    15     5     7    1
    16     7     8    1
    17     8    14    1
    18     8     9    1
    19     8    35    1
    20     9    10    1
    21     9    11    1
    22     9    34    1
    23    11    12    1
    24    11    48    1
    25    11    49    1
    26    12    13    1
    27    12    19    1
    28    12    14    1
    29    14    15    1
    30    14    33    1
    31    15    16    1
    32    15    50    1
    33    15    51    1
    34    16    17    1
    35    16    18    1
    36    16    32    1
    37    18    29    1
    38    18    19    1
    39    18    31    1
    40    19    20    1
    41    19    21    1
    42    21    22    1
    43    21    52    1
    44    21    53    1
    45    22    23    1
    46    22    54    1
    47    22    55    1
    48    23    29    1
    49    23    24    2
    50    24    25    1
    51    24    56    1
    52    25    26    2
    53    25    27    1
    54    27    28    2
    55    27    57    1
    56    28    29    1
    57    28    58    1
    58    29    30    1
    59    30    59    1
    60    30    60    1
    61    30    61    1
    62    32    62    1
    63    33    63    1
    64    33    64    1
    65    33    65    1
    66    34    66    1
    67    34    67    1
    68    34    68    1
    69    35    36    2
    70    35    37    1
    71    37    38    1
    72    37    69    1
    73    37    70    1
    74    38    71    1
