@<TRIPOS>MOLECULE
ZINC03830745
 51 54 0 0 0
SMALL
GASTEIGER

@<TRIPOS>ATOM
      1 C          -6.2995    2.0780   -1.1798 C.3     1  UNL1       -0.0058
      2 C          -5.9781    1.6517    0.2295 C.2     1  UNL1        0.1339
      3 O          -6.8423    1.6541    1.0730 O.2     1  UNL1       -0.2974
      4 C          -4.5782    1.2226    0.5861 C.3     1  UNL1        0.0229
      5 H          -3.9202    1.7613    0.0599 H       1  UNL1        0.0383
      6 C          -4.3368    1.4004    2.0988 C.3     1  UNL1       -0.0427
      7 C          -4.0092   -0.0014    2.6577 C.3     1  UNL1       -0.0485
      8 C          -3.4643   -0.7765    1.4227 C.3     1  UNL1       -0.0284
      9 H          -3.5111   -1.8586    1.5448 H       1  UNL1        0.0312
     10 C          -4.3961   -0.2746    0.3046 C.3     1  UNL1       -0.0192
     11 C          -3.8586   -0.5457   -1.0817 C.3     1  UNL1       -0.0464
     12 C          -2.4378   -0.0059   -1.2425 C.3     1  UNL1       -0.0484
     13 C          -1.5422   -0.6809   -0.1970 C.3     1  UNL1       -0.0251
     14 H          -1.5806   -1.7650   -0.3043 H       1  UNL1        0.0315
     15 C          -2.0336   -0.2823    1.1931 C.3     1  UNL1       -0.0156
     16 H          -2.0249    0.8046    1.2746 H       1  UNL1        0.0349
     17 C          -1.1287   -0.8597    2.2467 C.2     1  UNL1       -0.0801
     18 C           0.1625   -1.0791    2.0124 C.2     1  UNL1       -0.0616
     19 C           0.7578   -0.7711    0.7138 C.2     1  UNL1       -0.0382
     20 C           2.0741   -1.0117    0.5029 C.2     1  UNL1       -0.0155
     21 C           2.6834   -0.7514   -0.7346 C.2     1  UNL1        0.1564
     22 O           3.8699   -0.9685   -0.8779 O.2     1  UNL1       -0.2927
     23 C           1.8808   -0.2051   -1.8871 C.3     1  UNL1        0.0107
     24 C           0.4274   -0.6542   -1.7417 C.3     1  UNL1       -0.0363
     25 C          -0.1021   -0.1940   -0.3816 C.3     1  UNL1       -0.0032
     26 C          -0.0656    1.3338   -0.3090 C.3     1  UNL1       -0.0553
     27 C          -5.7467   -0.9764    0.4608 C.3     1  UNL1       -0.0586
     28 H          -5.4754    2.0162   -1.7429 H       1  UNL1        0.0306
     29 H          -7.0698    1.4250   -1.5901 H       1  UNL1        0.0306
     30 H          -6.6600    3.1066   -1.1750 H       1  UNL1        0.0306
     31 H          -3.4975    2.0753    2.2666 H       1  UNL1        0.0272
     32 H          -5.2342    1.7931    2.5770 H       1  UNL1        0.0272
     33 H          -3.2473    0.0648    3.4345 H       1  UNL1        0.0268
     34 H          -4.9091   -0.4786    3.0456 H       1  UNL1        0.0268
     35 H          -4.5072   -0.0674   -1.8157 H       1  UNL1        0.0271
     36 H          -3.8538   -1.6212   -1.2586 H       1  UNL1        0.0271
     37 H          -2.4352    1.0729   -1.0865 H       1  UNL1        0.0269
     38 H          -2.0698   -0.2334   -2.2430 H       1  UNL1        0.0269
     39 H          -1.5370   -1.1024    3.2166 H       1  UNL1        0.0575
     40 H           0.7814   -1.4916    2.7955 H       1  UNL1        0.0617
     41 H           2.6704   -1.4148    1.3080 H       1  UNL1        0.0655
     42 H           1.9260    0.7939   -1.8809 H       1  UNL1        0.0345
     43 H           2.2886   -0.5803   -2.8257 H       1  UNL1        0.0345
     44 H           0.3780   -1.7413   -1.8043 H       1  UNL1        0.0278
     45 H          -0.1739   -0.2127   -2.5364 H       1  UNL1        0.0278
     46 H           0.9607    1.6791   -0.4335 H       1  UNL1        0.0238
     47 H          -0.6877    1.7502   -1.1013 H       1  UNL1        0.0238
     48 H          -0.4439    1.6607    0.6596 H       1  UNL1        0.0238
     49 H          -5.6015   -2.0561    0.4235 H       1  UNL1        0.0235
     50 H          -6.1900   -0.7023    1.4180 H       1  UNL1        0.0235
     51 H          -6.4106   -0.6709   -0.3479 H       1  UNL1        0.0235
@<TRIPOS>BOND
     1     1     2    1
     2     1    28    1
     3     1    29    1
     4     1    30    1
     5     2     3    2
     6     2     4    1
     7     4     5    1
     8     4    10    1
     9     4     6    1
    10     6     7    1
    11     6    31    1
    12     6    32    1
    13     7     8    1
    14     7    33    1
    15     7    34    1
    16     8     9    1
    17     8    15    1
    18     8    10    1
    19    10    11    1
    20    10    27    1
    21    11    12    1
    22    11    35    1
    23    11    36    1
    24    12    13    1
    25    12    37    1
    26    12    38    1
    27    13    14    1
    28    13    25    1
    29    13    15    1
    30    15    16    1
    31    15    17    1
    32    17    18    2
    33    17    39    1
    34    18    19    1
    35    18    40    1
    36    19    25    1
    37    19    20    2
    38    20    21    1
    39    20    41    1
    40    21    22    2
    41    21    23    1
    42    23    24    1
    43    23    42    1
    44    23    43    1
    45    24    25    1
    46    24    44    1
    47    24    45    1
    48    25    26    1
    49    26    46    1
    50    26    47    1
    51    26    48    1
    52    27    49    1
    53    27    50    1
    54    27    51    1
