@<TRIPOS>MOLECULE
ZINC15848240
 71 74 0 0 0
SMALL
GASTEIGER

@<TRIPOS>ATOM
      1 C          -4.9046    1.7295   13.8753 C.3     1  UNL1       -0.0653
      2 C          -4.1765    2.6349   12.8797 C.3     1  UNL1       -0.0554
      3 C          -4.5084    2.1943   11.4526 C.3     1  UNL1       -0.0432
      4 C          -3.7804    3.0997   10.4570 C.3     1  UNL1        0.0449
      5 C          -4.1073    2.6657    9.0514 C.2     1  UNL1        0.3075
      6 O          -4.8467    1.7285    8.8650 O.2     1  UNL1       -0.2508
      7 O          -3.5770    3.3204    8.0064 O.3     1  UNL1       -0.4568
      8 C          -3.9357    2.8474    6.6813 C.3     1  UNL1        0.1530
      9 C          -3.2510    3.6974    5.6422 C.2     1  UNL1        0.2024
     10 O          -2.5346    4.6078    5.9832 O.2     1  UNL1       -0.2907
     11 C          -3.4602    3.4112    4.1775 C.3     1  UNL1        0.1351
     12 C          -3.3821    4.7183    3.3666 C.3     1  UNL1       -0.0071
     13 H          -3.2261    5.5647    4.0354 H       1  UNL1        0.0330
     14 C          -2.1779    4.5715    2.4081 C.3     1  UNL1       -0.0436
     15 C          -1.2993    3.5100    3.0958 C.3     1  UNL1       -0.0263
     16 H          -0.7744    3.9670    3.9347 H       1  UNL1        0.0311
     17 C          -2.3227    2.4994    3.6445 C.3     1  UNL1        0.0096
     18 C          -2.9248    1.6656    2.5110 C.3     1  UNL1       -0.0151
     19 C          -1.8296    1.0054    1.6772 C.3     1  UNL1        0.0910
     20 H          -2.2820    0.3951    0.8956 H       1  UNL1        0.0626
     21 C          -0.9741    2.1059    1.0409 C.3     1  UNL1        0.1526
     22 C          -0.2934    2.8921    2.1550 C.3     1  UNL1        0.0003
     23 H           0.3436    2.2093    2.7172 H       1  UNL1        0.0336
     24 C           0.5831    3.9764    1.5150 C.3     1  UNL1       -0.0432
     25 C           1.7992    3.2862    0.8952 C.3     1  UNL1       -0.0301
     26 C           1.3666    2.1365    0.0332 C.2     1  UNL1       -0.0532
     27 C           2.2825    1.5729   -0.7882 C.2     1  UNL1       -0.0148
     28 C           1.8036    0.3715   -1.5250 C.2     1  UNL1        0.1787
     29 O           2.0737    0.1695   -2.6942 O.2     1  UNL1       -0.2879
     30 C           0.9692   -0.5645   -0.7221 C.2     1  UNL1       -0.0180
     31 C           0.0676    0.0275    0.0909 C.2     1  UNL1       -0.0674
     32 C           0.0056    1.5293    0.0591 C.3     1  UNL1        0.0443
     33 C          -0.5921    1.8582   -1.3104 C.3     1  UNL1       -0.0493
     34 F          -1.8315    2.9707    0.3522 F       1  UNL1       -0.2377
     35 O          -1.0158    0.1842    2.5171 O.3     1  UNL1       -0.3886
     36 C          -1.7229    1.6318    4.7528 C.3     1  UNL1       -0.0562
     37 C          -4.6698    4.9151    2.5642 C.3     1  UNL1       -0.0594
     38 O          -4.7285    2.7840    3.9766 O.3     1  UNL1       -0.3801
     39 H          -5.9800    1.8023   13.7134 H       1  UNL1        0.0230
     40 H          -4.5843    0.6979   13.7298 H       1  UNL1        0.0230
     41 H          -4.6681    2.0434   14.8920 H       1  UNL1        0.0230
     42 H          -3.1011    2.5621   13.0416 H       1  UNL1        0.0263
     43 H          -4.4968    3.6665   13.0253 H       1  UNL1        0.0263
     44 H          -5.5839    2.2671   11.2907 H       1  UNL1        0.0270
     45 H          -4.1881    1.1627   11.3071 H       1  UNL1        0.0270
     46 H          -2.7049    3.0269   10.6189 H       1  UNL1        0.0377
     47 H          -4.1007    4.1313   10.6026 H       1  UNL1        0.0377
     48 H          -4.9267    2.9091    6.5623 H       1  UNL1        0.0779
     49 H          -3.6201    1.8103    6.5679 H       1  UNL1        0.0779
     50 H          -1.6406    5.5157    2.3194 H       1  UNL1        0.0272
     51 H          -2.5067    4.2223    1.4293 H       1  UNL1        0.0272
     52 H          -3.5659    0.8934    2.9361 H       1  UNL1        0.0297
     53 H          -3.5225    2.3127    1.8691 H       1  UNL1        0.0297
     54 H           0.9088    4.6852    2.2763 H       1  UNL1        0.0272
     55 H           0.0197    4.4976    0.7409 H       1  UNL1        0.0272
     56 H           2.4478    2.9169    1.6896 H       1  UNL1        0.0310
     57 H           2.3507    4.0042    0.2882 H       1  UNL1        0.0310
     58 H           3.2827    1.9643   -0.9006 H       1  UNL1        0.0656
     59 H           1.0771   -1.6373   -0.7848 H       1  UNL1        0.0653
     60 H          -0.5790   -0.5511    0.7338 H       1  UNL1        0.0583
     61 H          -1.5815    1.4083   -1.3925 H       1  UNL1        0.0242
     62 H          -0.6743    2.9395   -1.4207 H       1  UNL1        0.0242
     63 H           0.0538    1.4611   -2.0935 H       1  UNL1        0.0242
     64 H          -1.4999   -0.5248    2.9622 H       1  UNL1        0.2099
     65 H          -1.4816    2.2565    5.6128 H       1  UNL1        0.0236
     66 H          -2.4441    0.8697    5.0482 H       1  UNL1        0.0236
     67 H          -0.8156    1.1510    4.3870 H       1  UNL1        0.0236
     68 H          -4.8165    4.0648    1.8982 H       1  UNL1        0.0233
     69 H          -5.5156    4.9916    3.2475 H       1  UNL1        0.0233
     70 H          -4.5948    5.8292    1.9751 H       1  UNL1        0.0233
     71 H          -5.4812    3.3171    4.2669 H       1  UNL1        0.2108
@<TRIPOS>BOND
     1     1     2    1
     2     1    39    1
     3     1    40    1
     4     1    41    1
     5     2     3    1
     6     2    42    1
     7     2    43    1
     8     3     4    1
     9     3    44    1
    10     3    45    1
    11     4     5    1
    12     4    46    1
    13     4    47    1
    14     5     6    2
    15     5     7    1
    16     7     8    1
    17     8     9    1
    18     8    48    1
    19     8    49    1
    20     9    10    2
    21     9    11    1
    22    11    17    1
    23    11    12    1
    24    11    38    1
    25    12    13    1
    26    12    14    1
    27    12    37    1
    28    14    15    1
    29    14    50    1
    30    14    51    1
    31    15    16    1
    32    15    22    1
    33    15    17    1
    34    17    18    1
    35    17    36    1
    36    18    19    1
    37    18    52    1
    38    18    53    1
    39    19    20    1
    40    19    21    1
    41    19    35    1
    42    21    32    1
    43    21    22    1
    44    21    34    1
    45    22    23    1
    46    22    24    1
    47    24    25    1
    48    24    54    1
    49    24    55    1
    50    25    26    1
    51    25    56    1
    52    25    57    1
    53    26    32    1
    54    26    27    2
    55    27    28    1
    56    27    58    1
    57    28    29    2
    58    28    30    1
    59    30    31    2
    60    30    59    1
    61    31    32    1
    62    31    60    1
    63    32    33    1
    64    33    61    1
    65    33    62    1
    66    33    63    1
    67    35    64    1
    68    36    65    1
    69    36    66    1
    70    36    67    1
    71    37    68    1
    72    37    69    1
    73    37    70    1
    74    38    71    1
