@<TRIPOS>MOLECULE
ZINC03830931
 32 32 0 0 0
SMALL
GASTEIGER

@<TRIPOS>ATOM
      1 C          -0.6132    1.4790   -3.2611 C.3     1  UNL1       -0.0558
      2 C          -0.4716    2.2797   -1.9651 C.3     1  UNL1        0.0119
      3 H          -1.1026    3.1671   -2.0154 H       1  UNL1        0.0373
      4 C          -0.9036    1.4132   -0.7804 C.3     1  UNL1        0.0275
      5 N          -2.3348    1.1189   -0.8870 N.am    1  UNL1       -0.2691
      6 C          -3.2706    1.9671   -0.2835 C.ar    1  UNL1        0.0643
      7 C          -3.9199    2.9361   -1.0390 C.ar    1  UNL1        0.0369
      8 C          -4.8440    3.7739   -0.4441 C.ar    1  UNL1       -0.0318
      9 C          -5.1252    3.6515    0.9038 C.ar    1  UNL1        0.0361
     10 C          -4.4790    2.6849    1.6648 C.ar    1  UNL1        0.0530
     11 C          -3.5551    1.8374    1.0684 C.ar    1  UNL1        0.0573
     12 I          -2.5850    0.3724    2.2094 I       1  UNL1       -0.0399
     13 N          -4.7637    2.5616    3.0275 N.pl3   1  UNL1       -0.3563
     14 I          -6.5264    4.9250    1.8003 I       1  UNL1       -0.0419
     15 I          -3.4970    3.1274   -3.0819 I       1  UNL1       -0.0418
     16 C          -2.7504    0.0314   -1.5661 C.2     1  UNL1        0.2167
     17 O          -3.9358   -0.1615   -1.7353 O.2     1  UNL1       -0.2756
     18 C          -1.7422   -0.9449   -2.1152 C.3     1  UNL1        0.0127
     19 C           0.9659    2.6951   -1.7858 C.2     1  UNL1        0.0461
     20 O           1.5817    2.3350   -0.8105 O.co2   1  UNL1       -0.5495
     21 H          -0.0345    0.5585   -3.1846 H       1  UNL1        0.0236
     22 H          -1.6630    1.2356   -3.4249 H       1  UNL1        0.0236
     23 H          -0.2431    2.0724   -4.0971 H       1  UNL1        0.0236
     24 H          -0.3394    0.4807   -0.7875 H       1  UNL1        0.0475
     25 H          -0.7109    1.9475    0.1499 H       1  UNL1        0.0475
     26 H          -5.3472    4.5262   -1.0334 H       1  UNL1        0.0639
     27 H          -5.4127    3.1510    3.4426 H       1  UNL1        0.1424
     28 H          -4.3123    1.8867    3.5581 H       1  UNL1        0.1424
     29 H          -0.7423   -0.6549   -1.7921 H       1  UNL1        0.0323
     30 H          -1.9672   -1.9456   -1.7463 H       1  UNL1        0.0323
     31 H          -1.7878   -0.9403   -3.2042 H       1  UNL1        0.0323
     32 O           1.5623    3.4651   -2.7095 O.co2   1  UNL1       -0.5495
@<TRIPOS>UNITY_ATOM_ATTR
32 1
charge -1
@<TRIPOS>BOND
     1     1     2    1
     2     1    21    1
     3     1    22    1
     4     1    23    1
     5     2     3    1
     6     2     4    1
     7     2    19    1
     8     4     5    1
     9     4    24    1
    10     4    25    1
    11     5     6    1
    12     5    16   am
    13     6    11   ar
    14     6     7   ar
    15     7     8   ar
    16     7    15    1
    17     8     9   ar
    18     8    26    1
    19     9    10   ar
    20     9    14    1
    21    10    11   ar
    22    10    13    1
    23    11    12    1
    24    13    27    1
    25    13    28    1
    26    16    17    2
    27    16    18    1
    28    18    29    1
    29    18    30    1
    30    18    31    1
    31    19    20   ar
    32    19    32   ar
