@<TRIPOS>MOLECULE
ZINC00000053
 20 20 0 0 0
SMALL
GASTEIGER

@<TRIPOS>ATOM
      1 C          -0.1229    3.2437    1.5945 C.3     1  UNL1        0.0336
      2 C           0.0231    1.7764    1.2834 C.2     1  UNL1        0.3092
      3 O           0.1755    0.9810    2.1801 O.2     1  UNL1       -0.2507
      4 O          -0.0163    1.3529    0.0095 O.3     1  UNL1       -0.4254
      5 C           0.0118    0.0116   -0.1950 C.ar    1  UNL1        0.1404
      6 C           1.2194   -0.6347   -0.4114 C.ar    1  UNL1       -0.0186
      7 C           1.2471   -2.0002   -0.6150 C.ar    1  UNL1       -0.0582
      8 C           0.0713   -2.7329   -0.6145 C.ar    1  UNL1       -0.0609
      9 C          -1.1382   -2.1064   -0.4062 C.ar    1  UNL1       -0.0494
     10 C          -1.1802   -0.7259   -0.1941 C.ar    1  UNL1        0.0397
     11 C          -2.4709   -0.0488    0.0289 C.2     1  UNL1        0.0752
     12 O          -2.5034    1.1518    0.2126 O.co2   1  UNL1       -0.5445
     13 H          -1.1767    3.4813    1.7396 H       1  UNL1        0.0342
     14 H           0.4312    3.4794    2.5031 H       1  UNL1        0.0342
     15 H           0.2713    3.8318    0.7657 H       1  UNL1        0.0342
     16 H           2.1399   -0.0699   -0.4174 H       1  UNL1        0.0654
     17 H           2.1905   -2.4994   -0.7798 H       1  UNL1        0.0619
     18 H           0.1028   -3.8000   -0.7784 H       1  UNL1        0.0618
     19 H          -2.0524   -2.6814   -0.4074 H       1  UNL1        0.0625
     20 O          -3.6144   -0.7615    0.0290 O.co2   1  UNL1       -0.5445
@<TRIPOS>UNITY_ATOM_ATTR
20 1
charge -1
@<TRIPOS>BOND
     1     1     2    1
     2     1    13    1
     3     1    14    1
     4     1    15    1
     5     2     3    2
     6     2     4    1
     7     4     5    1
     8     5    10   ar
     9     5     6   ar
    10     6     7   ar
    11     6    16    1
    12     7     8   ar
    13     7    17    1
    14     8     9   ar
    15     8    18    1
    16     9    10   ar
    17     9    19    1
    18    10    11    1
    19    11    12   ar
    20    11    20   ar
