@<TRIPOS>MOLECULE
ZINC00020230
 39 39 0 0 0
SMALL
GASTEIGER

@<TRIPOS>ATOM
      1 C          -2.7601    8.1212    3.3242 C.3     1  UNL1       -0.0193
      2 C          -3.7009    7.0044    2.8673 C.3     1  UNL1       -0.0203
      3 C          -5.1416    7.5195    2.8669 C.3     1  UNL1       -0.0193
      4 C          -3.5843    5.8161    3.8239 C.3     1  UNL1       -0.0193
      5 C          -1.9526    6.0769    1.4723 C.3     1  UNL1       -0.0023
      6 C          -1.6065    5.6440    0.0462 C.3     1  UNL1        0.1197
      7 H          -2.3422    4.9191   -0.3021 H       1  UNL1        0.0698
      8 C          -0.2365    5.0165    0.0303 C.ar    1  UNL1       -0.0135
      9 C           0.8901    5.8185    0.0238 C.ar    1  UNL1       -0.0525
     10 C           2.1469    5.2458    0.0092 C.ar    1  UNL1       -0.0195
     11 C           2.2786    3.8645    0.0011 C.ar    1  UNL1        0.1222
     12 C           1.1470    3.0623    0.0076 C.ar    1  UNL1        0.0195
     13 C          -0.1080    3.6401    0.0169 C.ar    1  UNL1       -0.0471
     14 C           1.2864    1.5618   -0.0018 C.3     1  UNL1        0.0727
     15 O          -0.0110    0.9628    0.0073 O.3     1  UNL1       -0.3903
     16 O           3.5141    3.2987   -0.0138 O.3     1  UNL1       -0.5064
     17 O          -1.6178    6.7850   -0.8140 O.3     1  UNL1       -0.3819
     18 H          -2.8432    8.9678    2.6426 H       1  UNL1        0.0287
     19 H          -3.0333    8.4371    4.3310 H       1  UNL1        0.0287
     20 H          -1.7337    7.7543    3.3244 H       1  UNL1        0.0287
     21 H          -5.8118    6.7239    2.5414 H       1  UNL1        0.0287
     22 H          -5.4147    7.8354    3.8737 H       1  UNL1        0.0287
     23 H          -5.2246    8.3660    2.1854 H       1  UNL1        0.0287
     24 H          -2.5579    5.4492    3.8242 H       1  UNL1        0.0287
     25 H          -3.8574    6.1321    4.8307 H       1  UNL1        0.0287
     26 H          -4.2545    5.0205    3.4984 H       1  UNL1        0.0287
     27 H          -1.8574    5.2239    2.1442 H       1  UNL1        0.0843
     28 H          -1.2703    6.8661    1.7881 H       1  UNL1        0.0843
     29 H           0.7871    6.8935    0.0299 H       1  UNL1        0.0622
     30 H           3.0264    5.8726    0.0046 H       1  UNL1        0.0654
     31 H          -0.9894    3.0159    0.0178 H       1  UNL1        0.0626
     32 H           1.8401    1.2428    0.8812 H       1  UNL1        0.0608
     33 H           1.8231    1.2523   -0.8987 H       1  UNL1        0.0608
     34 H           0.0021   -0.0041    0.0020 H       1  UNL1        0.2098
     35 H           3.8632    3.1396   -0.9014 H       1  UNL1        0.2921
     36 H          -0.9860    7.4728   -0.5633 H       1  UNL1        0.2105
     37 N          -3.3393    6.5791    1.5019 N.4     1  UNL1        0.2328
     38 H          -3.4233    7.3796    0.8644 H       1  UNL1        0.2020
     39 H          -3.9764    5.8327    1.1998 H       1  UNL1        0.2020
@<TRIPOS>UNITY_ATOM_ATTR
37 1
charge 1
@<TRIPOS>BOND
     1     1     2    1
     2     1    18    1
     3     1    19    1
     4     1    20    1
     5     2     3    1
     6     2     4    1
     7     2    37    1
     8     3    21    1
     9     3    22    1
    10     3    23    1
    11     4    24    1
    12     4    25    1
    13     4    26    1
    14     5     6    1
    15     5    27    1
    16     5    28    1
    17     5    37    1
    18     6     7    1
    19     6     8    1
    20     6    17    1
    21     8    13   ar
    22     8     9   ar
    23     9    10   ar
    24     9    29    1
    25    10    11   ar
    26    10    30    1
    27    11    12   ar
    28    11    16    1
    29    12    13   ar
    30    12    14    1
    31    13    31    1
    32    14    15    1
    33    14    32    1
    34    14    33    1
    35    15    34    1
    36    16    35    1
    37    17    36    1
    38    37    38    1
    39    37    39    1
