@<TRIPOS>MOLECULE
ZINC08614192
 57 60 0 0 0
SMALL
GASTEIGER

@<TRIPOS>ATOM
      1 C           4.8060    1.5120    2.7493 C.3     1  UNL1       -0.0312
      2 C           5.3565    1.0333    1.4045 C.3     1  UNL1        0.0972
      3 C           5.3781   -0.4707    1.3849 C.ar    1  UNL1        0.0168
      4 C           6.5221   -1.1508    1.7505 C.ar    1  UNL1        0.0478
      5 C           6.5292   -2.5361    1.7874 C.ar    1  UNL1       -0.0395
      6 C           5.3929   -3.2511    1.4627 C.ar    1  UNL1       -0.0181
      7 C           4.2381   -2.5833    1.0828 C.ar    1  UNL1        0.1281
      8 C           4.2347   -1.1853    1.0234 C.ar    1  UNL1        0.0707
      9 C           3.0214   -0.4539    0.6086 C.2     1  UNL1        0.1967
     10 O           1.9510   -1.0284    0.5216 O.2     1  UNL1       -0.2867
     11 C           3.1247    0.9377    0.3108 C.2     1  UNL1        0.0466
     12 C           1.9903    1.6058    0.0355 C.2     1  UNL1        0.1409
     13 C           2.0528    3.0838   -0.2856 C.3     1  UNL1        0.1935
     14 C           3.1120    3.6897    0.6600 C.3     1  UNL1        0.0531
     15 H           2.8674    3.4783    1.7010 H       1  UNL1        0.0397
     16 C           4.4704    3.0878    0.3173 C.3     1  UNL1       -0.0311
     17 C           4.4752    1.5756    0.2786 C.3     1  UNL1        0.0244
     18 H           4.9452    1.2875   -0.6617 H       1  UNL1        0.0382
     19 C           3.1728    5.2022    0.4401 C.3     1  UNL1        0.0441
     20 H           3.5657    5.4013   -0.5570 H       1  UNL1        0.0939
     21 C           1.8192    5.8326    0.5677 C.2     1  UNL1        0.1579
     22 C           0.6572    5.1218    0.3953 C.2     1  UNL1        0.1248
     23 C           0.7129    3.6906    0.0934 C.2     1  UNL1        0.2108
     24 O          -0.2881    3.0057    0.1399 O.2     1  UNL1       -0.2882
     25 C          -0.6440    5.7986    0.5146 C.2     1  UNL1        0.2485
     26 O          -1.3294    5.6287    1.5050 O.2     1  UNL1       -0.2702
     27 N          -1.0763    6.6067   -0.4736 N.am    1  UNL1       -0.3252
     28 O           1.7400    7.1391    0.8605 O.2     1  UNL1       -0.5050
     29 C           4.4074    7.1826    1.0855 C.3     1  UNL1       -0.0427
     30 C           3.4902    5.7207    2.7838 C.3     1  UNL1       -0.0427
     31 O           2.3865    3.3045   -1.6574 O.3     1  UNL1       -0.3731
     32 O           0.8060    0.9622    0.0400 O.2     1  UNL1       -0.5073
     33 O           3.1178   -3.2821    0.7699 O.3     1  UNL1       -0.5060
     34 CL          7.9577   -0.2675    2.1657 Cl      1  UNL1       -0.0831
     35 O           6.6878    1.5255    1.2388 O.3     1  UNL1       -0.3836
     36 H           5.4432    1.1452    3.5541 H       1  UNL1        0.0261
     37 H           4.7886    2.6017    2.7677 H       1  UNL1        0.0261
     38 H           3.7941    1.1302    2.8844 H       1  UNL1        0.0261
     39 H           7.4296   -3.0604    2.0716 H       1  UNL1        0.0633
     40 H           5.4034   -4.3302    1.5051 H       1  UNL1        0.0655
     41 H           5.1955    3.4193    1.0606 H       1  UNL1        0.0278
     42 H           4.7783    3.4620   -0.6591 H       1  UNL1        0.0278
     43 H          -0.5651    6.6857   -1.2942 H       1  UNL1        0.1453
     44 H          -1.8987    7.1094   -0.3642 H       1  UNL1        0.1453
     45 H           0.7792    7.4116    0.9117 H       1  UNL1        0.2919
     46 H           3.5129    7.8014    1.1569 H       1  UNL1        0.0778
     47 H           5.1654    7.5591    1.7723 H       1  UNL1        0.0778
     48 H           4.7919    7.2160    0.0661 H       1  UNL1        0.0778
     49 H           3.3170    4.6772    3.0468 H       1  UNL1        0.0778
     50 H           4.1771    6.1674    3.5026 H       1  UNL1        0.0778
     51 H           2.5440    6.2616    2.8009 H       1  UNL1        0.0778
     52 H           1.7561    2.9208   -2.2822 H       1  UNL1        0.2113
     53 H           0.0753    1.6071   -0.1840 H       1  UNL1        0.2918
     54 H           3.0508   -3.5198   -0.1650 H       1  UNL1        0.2922
     55 H           7.0696    1.3420    0.3695 H       1  UNL1        0.2106
     56 N           4.0974    5.7809    1.4376 N.4     1  UNL1        0.2388
     57 H           4.9683    5.2372    1.4399 H       1  UNL1        0.2035
@<TRIPOS>UNITY_ATOM_ATTR
56 1
charge 1
@<TRIPOS>BOND
     1     1     2    1
     2     1    36    1
     3     1    37    1
     4     1    38    1
     5     2    17    1
     6     2     3    1
     7     2    35    1
     8     3     8   ar
     9     3     4   ar
    10     4     5   ar
    11     4    34    1
    12     5     6   ar
    13     5    39    1
    14     6     7   ar
    15     6    40    1
    16     7     8   ar
    17     7    33    1
    18     8     9    1
    19     9    10    2
    20     9    11    1
    21    11    17    1
    22    11    12    2
    23    12    13    1
    24    12    32    1
    25    13    23    1
    26    13    14    1
    27    13    31    1
    28    14    15    1
    29    14    16    1
    30    14    19    1
    31    16    17    1
    32    16    41    1
    33    16    42    1
    34    17    18    1
    35    19    20    1
    36    19    21    1
    37    19    56    1
    38    21    22    2
    39    21    28    1
    40    22    23    1
    41    22    25    1
    42    23    24    2
    43    25    26    2
    44    25    27   am
    45    27    43    1
    46    27    44    1
    47    28    45    1
    48    29    46    1
    49    29    47    1
    50    29    48    1
    51    29    56    1
    52    30    49    1
    53    30    50    1
    54    30    51    1
    55    30    56    1
    56    31    52    1
    57    32    53    1
    58    33    54    1
    59    35    55    1
    60    56    57    1
