@<TRIPOS>MOLECULE
ZINC00897236
 28 29 0 0 0
SMALL
GASTEIGER

@<TRIPOS>ATOM
      1 C           4.0575    1.4894    0.2243 C.ar    1  UNL1       -0.0186
      2 C           2.7093    1.1349    0.2113 C.ar    1  UNL1        0.0565
      3 C           1.7549    2.1232    0.0113 C.ar    1  UNL1        0.1280
      4 C           2.1326    3.4351   -0.1858 C.ar    1  UNL1       -0.0057
      5 C           3.4721    3.7789   -0.1775 C.ar    1  UNL1        0.1252
      6 C           4.4320    2.8035    0.0310 C.ar    1  UNL1        0.0691
      7 CL          6.1134    3.2352    0.0497 Cl      1  UNL1       -0.0815
      8 S           3.9557    5.4539   -0.4322 S.O2    1  UNL1        0.0574
      9 O           4.9765    5.4362   -1.4205 O.2     1  UNL1       -0.1532
     10 O           2.7583    6.2033   -0.5871 O.2     1  UNL1       -0.1532
     11 N           4.6637    5.9778    0.9702 N.3     1  UNL1       -0.2035
     12 S           0.0407    1.6919    0.0125 S.O2    1  UNL1        0.0619
     13 O          -0.4971    2.1240   -1.2298 O.2     1  UNL1       -0.1529
     14 O          -0.4897    2.1016    1.2655 O.2     1  UNL1       -0.1529
     15 N           0.0231    0.0237   -0.0024 N.3     1  UNL1       -0.1673
     16 C           1.0432   -0.6383    0.8360 C.3     1  UNL1        0.1215
     17 H           0.9583   -1.7198    0.7296 H       1  UNL1        0.0709
     18 N           2.3658   -0.2017    0.3957 N.pl3   1  UNL1       -0.3238
     19 C           0.8354   -0.2488    2.3009 C.3     1  UNL1        0.1405
     20 CL         -0.8432   -0.6739    2.8035 Cl      1  UNL1       -0.1012
     21 CL          2.0154   -1.1395    3.3329 Cl      1  UNL1       -0.1012
     22 H           4.8113    0.7330    0.3859 H       1  UNL1        0.0652
     23 H           1.3817    4.1944   -0.3470 H       1  UNL1        0.0658
     24 H           4.7409    5.3775    1.7282 H       1  UNL1        0.1442
     25 H           5.0012    6.8850    1.0336 H       1  UNL1        0.1442
     26 H          -0.6170   -0.4801   -0.5291 H       1  UNL1        0.1502
     27 H           3.0395   -0.8778    0.2226 H       1  UNL1        0.1477
     28 H           0.9886    0.8241    2.4168 H       1  UNL1        0.0667
@<TRIPOS>BOND
     1     1     6   ar
     2     1     2   ar
     3     1    22    1
     4     2    18    1
     5     2     3   ar
     6     3     4   ar
     7     3    12    1
     8     4     5   ar
     9     4    23    1
    10     5     6   ar
    11     5     8    1
    12     6     7    1
    13     8     9    2
    14     8    10    2
    15     8    11    1
    16    11    24    1
    17    11    25    1
    18    12    13    2
    19    12    14    2
    20    12    15    1
    21    15    16    1
    22    15    26    1
    23    16    17    1
    24    16    18    1
    25    16    19    1
    26    18    27    1
    27    19    20    1
    28    19    21    1
    29    19    28    1
