@<TRIPOS>MOLECULE
ZINC00001268
 44 45 0 0 0
SMALL
GASTEIGER

@<TRIPOS>ATOM
      1 C           1.6933   -4.5933   -2.2188 C.3     1  UNL1       -0.0306
      2 C           2.8202   -3.5635   -2.3221 C.3     1  UNL1        0.0897
      3 O           2.7557   -2.6601   -1.1872 O.3     1  UNL1       -0.4641
      4 C           3.6817   -1.6902   -1.1270 C.2     1  UNL1        0.3236
      5 O           4.5184   -1.5992   -1.9939 O.2     1  UNL1       -0.2496
      6 C           3.6777   -0.7148    0.0218 C.3     1  UNL1        0.1387
      7 C           3.8641   -1.4727    1.3423 C.3     1  UNL1       -0.0241
      8 C           5.1051   -2.3596    1.2202 C.3     1  UNL1       -0.0330
      9 C           6.2620   -1.5605    0.6959 C.2     1  UNL1       -0.0826
     10 C           6.1434   -0.4162    0.1025 C.2     1  UNL1       -0.0389
     11 C           4.8329    0.2755   -0.1403 C.3     1  UNL1        0.0176
     12 H           4.8183    0.6856   -1.1501 H       1  UNL1        0.0912
     13 C           5.4347    1.0960    2.0568 C.3     1  UNL1       -0.0427
     14 C           5.0733    2.6547    0.2395 C.3     1  UNL1       -0.0427
     15 C           2.3694    0.0327    0.0470 C.ar    1  UNL1       -0.0249
     16 C           1.5059   -0.1213    1.1155 C.ar    1  UNL1       -0.0573
     17 C           0.3062    0.5651    1.1391 C.ar    1  UNL1       -0.0615
     18 C          -0.0298    1.4057    0.0945 C.ar    1  UNL1       -0.0617
     19 C           0.8339    1.5600   -0.9738 C.ar    1  UNL1       -0.0615
     20 C           2.0329    0.8726   -0.9980 C.ar    1  UNL1       -0.0573
     21 H           1.8039   -5.1616   -1.2953 H       1  UNL1        0.0262
     22 H           0.7315   -4.0805   -2.2169 H       1  UNL1        0.0262
     23 H           1.7417   -5.2715   -3.0707 H       1  UNL1        0.0262
     24 H           2.7095   -2.9953   -3.2456 H       1  UNL1        0.0694
     25 H           3.7820   -4.0764   -2.3240 H       1  UNL1        0.0694
     26 H           4.0008   -0.7614    2.1568 H       1  UNL1        0.0284
     27 H           2.9885   -2.0924    1.5359 H       1  UNL1        0.0284
     28 H           5.3591   -2.7625    2.2007 H       1  UNL1        0.0308
     29 H           4.8953   -3.1826    0.5371 H       1  UNL1        0.0308
     30 H           7.2554   -1.9651    0.8217 H       1  UNL1        0.0571
     31 H           7.0433    0.0705   -0.2435 H       1  UNL1        0.0625
     32 H           6.5019    1.1069    1.8351 H       1  UNL1        0.0778
     33 H           5.2101    1.8612    2.7998 H       1  UNL1        0.0778
     34 H           5.1546    0.1175    2.4469 H       1  UNL1        0.0778
     35 H           4.5096    2.8235   -0.6780 H       1  UNL1        0.0778
     36 H           4.8653    3.4577    0.9467 H       1  UNL1        0.0778
     37 H           6.1394    2.6372    0.0130 H       1  UNL1        0.0778
     38 H           1.7688   -0.7775    1.9320 H       1  UNL1        0.0621
     39 H          -0.3683    0.4448    1.9739 H       1  UNL1        0.0618
     40 H          -0.9691    1.9385    0.1108 H       1  UNL1        0.0618
     41 H           0.5712    2.2166   -1.7901 H       1  UNL1        0.0618
     42 H           2.7077    0.9931   -1.8327 H       1  UNL1        0.0621
     43 N           4.6488    1.3704    0.8354 N.4     1  UNL1        0.2370
     44 H           3.6547    1.4310    1.0851 H       1  UNL1        0.2034
@<TRIPOS>UNITY_ATOM_ATTR
43 1
charge 1
@<TRIPOS>BOND
     1     1     2    1
     2     1    21    1
     3     1    22    1
     4     1    23    1
     5     2     3    1
     6     2    24    1
     7     2    25    1
     8     3     4    1
     9     4     5    2
    10     4     6    1
    11     6    11    1
    12     6     7    1
    13     6    15    1
    14     7     8    1
    15     7    26    1
    16     7    27    1
    17     8     9    1
    18     8    28    1
    19     8    29    1
    20     9    10    2
    21     9    30    1
    22    10    11    1
    23    10    31    1
    24    11    12    1
    25    11    43    1
    26    13    32    1
    27    13    33    1
    28    13    34    1
    29    13    43    1
    30    14    35    1
    31    14    36    1
    32    14    37    1
    33    14    43    1
    34    15    20   ar
    35    15    16   ar
    36    16    17   ar
    37    16    38    1
    38    17    18   ar
    39    17    39    1
    40    18    19   ar
    41    18    40    1
    42    19    20   ar
    43    19    41    1
    44    20    42    1
    45    43    44    1
