@<TRIPOS>MOLECULE
ZINC00897244
 25 26 0 0 0
SMALL
GASTEIGER

@<TRIPOS>ATOM
      1 C          -0.0127    1.0858    0.0080 C.3     1  UNL1       -0.0380
      2 C          -0.7288    1.5792    1.2668 C.3     1  UNL1        0.1079
      3 C          -0.0153    1.0906    2.5599 C.3     1  UNL1        0.0916
      4 H           1.0599    1.0564    2.3837 H       1  UNL1        0.0584
      5 N          -0.2875    1.9881    3.6870 N.am    1  UNL1       -0.2686
      6 C          -0.5462    3.3933    3.3451 C.3     1  UNL1        0.1534
      7 H          -1.4285    3.8469    3.7968 H       1  UNL1        0.0750
      8 S          -0.5088    3.4000    1.5052 S.O2    1  UNL1       -0.0044
      9 O           0.7862    3.7808    1.0611 O.2     1  UNL1       -0.1720
     10 O          -1.6540    4.0820    1.0126 O.2     1  UNL1       -0.1720
     11 C           0.7806    3.7397    3.9972 C.3     1  UNL1        0.0629
     12 C           0.7395    2.3243    4.4911 C.2     1  UNL1        0.2210
     13 O           1.3900    1.7101    5.3100 O.2     1  UNL1       -0.2754
     14 C          -0.5039   -0.2935    2.9011 C.2     1  UNL1        0.0643
     15 O          -1.3464   -0.4436    3.7541 O.co2   1  UNL1       -0.5478
     16 C          -2.2075    1.1862    1.2571 C.3     1  UNL1       -0.0380
     17 H           0.0021   -0.0041    0.0020 H       1  UNL1        0.0251
     18 H           1.0099    1.4631    0.0003 H       1  UNL1        0.0251
     19 H          -0.5399    1.4469   -0.8751 H       1  UNL1        0.0251
     20 H           0.7056    4.4878    4.7864 H       1  UNL1        0.0393
     21 H           1.5864    3.9405    3.2912 H       1  UNL1        0.0393
     22 H          -2.2945    0.1001    1.2249 H       1  UNL1        0.0251
     23 H          -2.6894    1.5627    2.1593 H       1  UNL1        0.0251
     24 H          -2.6918    1.6157    0.3802 H       1  UNL1        0.0251
     25 O          -0.0033   -1.3597    2.2573 O.co2   1  UNL1       -0.5478
@<TRIPOS>UNITY_ATOM_ATTR
25 1
charge -1
@<TRIPOS>BOND
     1     1     2    1
     2     1    17    1
     3     1    18    1
     4     1    19    1
     5     2     8    1
     6     2     3    1
     7     2    16    1
     8     3     4    1
     9     3     5    1
    10     3    14    1
    11     5    12   am
    12     5     6    1
    13     6     7    1
    14     6     8    1
    15     6    11    1
    16     8     9    2
    17     8    10    2
    18    11    12    1
    19    11    20    1
    20    11    21    1
    21    12    13    2
    22    14    15   ar
    23    14    25   ar
    24    16    22    1
    25    16    23    1
    26    16    24    1
