@<TRIPOS>MOLECULE
ZINC01530925
 37 37 0 0 0
SMALL
GASTEIGER

@<TRIPOS>ATOM
      1 C          -0.0127    1.0858    0.0080 C.3     1  UNL1       -0.0543
      2 C          -0.7288    1.5792    1.2668 C.3     1  UNL1        0.0063
      3 C          -2.1098    1.0697    1.2773 C.1     1  UNL1       -0.1022
      4 C          -3.2112    0.6634    1.2856 C.1     1  UNL1       -0.0976
      5 C          -4.5922    0.1539    1.2960 C.3     1  UNL1        0.0405
      6 H          -5.1194    0.5149    0.4130 H       1  UNL1        0.0445
      7 C          -5.3083    0.6473    2.5548 C.3     1  UNL1       -0.0500
      8 C          -4.5714   -1.3760    1.2876 C.3     1  UNL1        0.1401
      9 C          -3.6941   -1.8425    2.4339 C.2     1  UNL1        0.2369
     10 O          -2.5326   -1.5046    2.5144 O.2     1  UNL1       -0.2742
     11 N          -4.2546   -2.6481    3.3608 N.am    1  UNL1       -0.2388
     12 C          -5.5347   -3.0300    3.2863 C.2     1  UNL1        0.3146
     13 O          -5.9576   -3.7560    4.1639 O.2     1  UNL1       -0.2518
     14 N          -6.3829   -2.6713    2.3159 N.am    1  UNL1       -0.2279
     15 C          -6.0065   -1.8676    1.2987 C.2     1  UNL1        0.2393
     16 O          -6.7865   -1.5501    0.4266 O.2     1  UNL1       -0.2740
     17 C          -7.7616   -3.1650    2.3588 C.3     1  UNL1        0.0124
     18 C          -3.9218   -1.8328   -0.0201 C.3     1  UNL1       -0.0114
     19 C          -3.8842   -3.3387   -0.0631 C.2     1  UNL1       -0.0896
     20 C          -4.4141   -3.9785   -1.0761 C.2     1  UNL1       -0.1026
     21 H           0.0021   -0.0041    0.0020 H       1  UNL1        0.0239
     22 H           1.0099    1.4631    0.0003 H       1  UNL1        0.0239
     23 H          -0.5399    1.4469   -0.8751 H       1  UNL1        0.0239
     24 H          -0.2017    1.2182    2.1499 H       1  UNL1        0.0395
     25 H          -0.7436    2.6691    1.2728 H       1  UNL1        0.0395
     26 H          -4.7811    0.2862    3.4379 H       1  UNL1        0.0242
     27 H          -5.3231    1.7372    2.5608 H       1  UNL1        0.0242
     28 H          -6.3309    0.2700    2.5626 H       1  UNL1        0.0242
     29 H          -3.7131   -2.9594    4.1029 H       1  UNL1        0.1591
     30 H          -7.8255   -4.1112    1.8214 H       1  UNL1        0.0434
     31 H          -8.0617   -3.3151    3.3958 H       1  UNL1        0.0434
     32 H          -8.4233   -2.4360    1.8909 H       1  UNL1        0.0434
     33 H          -4.5021   -1.4596   -0.8639 H       1  UNL1        0.0322
     34 H          -2.9057   -1.4423   -0.0769 H       1  UNL1        0.0322
     35 H          -3.4205   -3.8905    0.7412 H       1  UNL1        0.0567
     36 H          -4.3872   -5.0577   -1.1069 H       1  UNL1        0.0532
     37 H          -4.8778   -3.4267   -1.8803 H       1  UNL1        0.0532
@<TRIPOS>BOND
     1     1     2    1
     2     1    21    1
     3     1    22    1
     4     1    23    1
     5     2     3    1
     6     2    24    1
     7     2    25    1
     8     3     4    3
     9     4     5    1
    10     5     6    1
    11     5     7    1
    12     5     8    1
    13     7    26    1
    14     7    27    1
    15     7    28    1
    16     8    15    1
    17     8     9    1
    18     8    18    1
    19     9    10    2
    20     9    11   am
    21    11    12   am
    22    11    29    1
    23    12    13    2
    24    12    14   am
    25    14    15   am
    26    14    17    1
    27    15    16    2
    28    17    30    1
    29    17    31    1
    30    17    32    1
    31    18    19    1
    32    18    33    1
    33    18    34    1
    34    19    20    2
    35    19    35    1
    36    20    36    1
    37    20    37    1
