@<TRIPOS>MOLECULE
ZINC03831423
 47 49 0 0 0
SMALL
GASTEIGER

@<TRIPOS>ATOM
      1 C          -6.4941    3.5380    1.2025 C.3     1  UNL1       -0.0394
      2 C          -5.3309    2.8491    0.5367 C.ar    1  UNL1       -0.0454
      3 C          -5.5293    1.6677   -0.1115 C.ar    1  UNL1       -0.0311
      4 C          -4.4467    1.0180   -0.7361 C.ar    1  UNL1        0.0886
      5 C          -3.1629    1.6067   -0.6798 C.ar    1  UNL1        0.0694
      6 C          -2.9894    2.8149   -0.0103 C.ar    1  UNL1       -0.0329
      7 C          -4.0669    3.4271    0.5907 C.ar    1  UNL1       -0.0455
      8 C          -3.8745    4.7349    1.3143 C.3     1  UNL1       -0.0394
      9 N          -2.0873    0.9906   -1.2837 N.ar    1  UNL1       -0.3195
     10 C          -2.2950   -0.1880   -1.9349 C.ar    1  UNL1        0.1705
     11 N          -1.3162   -0.8461   -2.5334 N.ar    1  UNL1       -0.1733
     12 C          -1.5344   -1.9995   -3.1602 C.ar    1  UNL1        0.3505
     13 O          -0.5863   -2.5478   -3.6943 O.2     1  UNL1       -0.2446
     14 N          -2.7326   -2.5953   -3.2410 N.ar    1  UNL1       -0.2717
     15 H          -2.8166   -3.4628   -3.7313 H       1  UNL1        0.1735
     16 C          -3.8306   -2.0459   -2.6722 C.ar    1  UNL1        0.2817
     17 O          -4.9184   -2.5842   -2.7439 O.2     1  UNL1       -0.2653
     18 C          -3.6508   -0.7615   -1.9594 C.ar    1  UNL1        0.1712
     19 N          -4.6443   -0.1436   -1.3734 N.ar    1  UNL1       -0.2368
     20 C          -0.7527    1.5927   -1.2315 C.3     1  UNL1        0.0538
     21 C          -0.0127    1.0858    0.0080 C.3     1  UNL1        0.1014
     22 H           0.0021   -0.0041    0.0020 H       1  UNL1        0.0638
     23 C           1.4227    1.6154   -0.0028 C.3     1  UNL1        0.1106
     24 H           1.9595    1.1927   -0.8521 H       1  UNL1        0.0646
     25 C           2.1246    1.2130    1.2957 C.3     1  UNL1        0.1065
     26 H           2.2179    0.1278    1.3370 H       1  UNL1        0.0643
     27 C           3.5165    1.8466    1.3406 C.3     1  UNL1        0.0726
     28 O           4.2160    1.3785    2.4954 O.3     1  UNL1       -0.3924
     29 O           1.3578    1.6680    2.4124 O.3     1  UNL1       -0.3869
     30 O           1.4040    3.0401   -0.1124 O.3     1  UNL1       -0.3865
     31 O          -0.6816    1.5467    1.1837 O.3     1  UNL1       -0.3874
     32 H          -6.5787    3.1938    2.2332 H       1  UNL1        0.0278
     33 H          -6.3327    4.6159    1.1915 H       1  UNL1        0.0278
     34 H          -7.4123    3.3026    0.6643 H       1  UNL1        0.0278
     35 H          -6.5158    1.2296   -0.1468 H       1  UNL1        0.0642
     36 H          -2.0118    3.2715    0.0375 H       1  UNL1        0.0641
     37 H          -3.6318    4.5398    2.3589 H       1  UNL1        0.0278
     38 H          -3.0600    5.2907    0.8498 H       1  UNL1        0.0278
     39 H          -4.7924    5.3200    1.2576 H       1  UNL1        0.0278
     40 H          -0.8452    2.6775   -1.1811 H       1  UNL1        0.0519
     41 H          -0.1944    1.3168   -2.1261 H       1  UNL1        0.0519
     42 H           4.0705    1.5705    0.4435 H       1  UNL1        0.0584
     43 H           3.4205    2.9313    1.3889 H       1  UNL1        0.0584
     44 H           5.1080    1.7400    2.5884 H       1  UNL1        0.2095
     45 H           1.2341    2.6266    2.4402 H       1  UNL1        0.2100
     46 H           0.9414    3.4842    0.6114 H       1  UNL1        0.2100
     47 H          -0.7322    2.5097    1.2555 H       1  UNL1        0.2100
@<TRIPOS>BOND
     1     1     2    1
     2     1    32    1
     3     1    33    1
     4     1    34    1
     5     2     7   ar
     6     2     3   ar
     7     3     4   ar
     8     3    35    1
     9     4    19   ar
    10     4     5   ar
    11     5     6   ar
    12     5     9   ar
    13     6     7   ar
    14     6    36    1
    15     7     8    1
    16     8    37    1
    17     8    38    1
    18     8    39    1
    19     9    10   ar
    20     9    20    1
    21    10    18    1
    22    10    11   ar
    23    11    12   ar
    24    12    13    2
    25    12    14   ar
    26    14    15    1
    27    14    16   ar
    28    16    17    2
    29    16    18   ar
    30    18    19   ar
    31    20    21    1
    32    20    40    1
    33    20    41    1
    34    21    22    1
    35    21    23    1
    36    21    31    1
    37    23    24    1
    38    23    25    1
    39    23    30    1
    40    25    26    1
    41    25    27    1
    42    25    29    1
    43    27    28    1
    44    27    42    1
    45    27    43    1
    46    28    44    1
    47    29    45    1
    48    30    46    1
    49    31    47    1
