@<TRIPOS>MOLECULE
ZINC08552616
 69 74 0 0 0
SMALL
GASTEIGER

@<TRIPOS>ATOM
      1 C           3.5628   -0.6672    0.7683 C.3     1  UNL1       -0.0030
      2 C           3.4218    0.4382   -0.2462 C.2     1  UNL1        0.1650
      3 O           4.4013    1.0237   -0.6413 O.2     1  UNL1       -0.2945
      4 C           2.0550    0.8138   -0.7691 C.3     1  UNL1        0.1617
      5 C           1.3774    1.9236    0.0761 C.3     1  UNL1        0.0990
      6 H           1.7878    1.9945    1.0851 H       1  UNL1        0.0631
      7 C           1.5458    3.2398   -0.7065 C.3     1  UNL1       -0.0196
      8 C           2.3669    2.8949   -1.9517 C.3     1  UNL1       -0.0269
      9 H           3.4298    3.0075   -1.6834 H       1  UNL1        0.0311
     10 C           2.1127    1.4007   -2.2052 C.3     1  UNL1        0.0097
     11 C           0.7434    1.2043   -2.8478 C.3     1  UNL1       -0.0439
     12 C           0.5889    1.9961   -4.1295 C.3     1  UNL1       -0.0486
     13 C           0.8919    3.4807   -3.9786 C.3     1  UNL1       -0.0288
     14 H           1.2005    3.7935   -5.0301 H       1  UNL1        0.0312
     15 C           2.1079    3.7616   -3.1490 C.3     1  UNL1       -0.0336
     16 H           2.9712    3.5170   -3.8340 H       1  UNL1        0.0307
     17 C           2.3270    5.2422   -2.8452 C.3     1  UNL1       -0.0459
     18 C           1.0757    5.8628   -2.2303 C.3     1  UNL1       -0.0305
     19 C          -0.0683    5.6666   -3.2051 C.2     1  UNL1       -0.0601
     20 C          -0.7677    6.7433   -3.5646 C.2     1  UNL1       -0.0194
     21 C          -1.8983    6.6503   -4.4879 C.2     1  UNL1        0.1561
     22 O          -2.4536    7.6563   -4.8942 O.2     1  UNL1       -0.2927
     23 C          -2.3597    5.2785   -4.9326 C.3     1  UNL1        0.0107
     24 C          -1.1559    4.3557   -5.0307 C.3     1  UNL1       -0.0367
     25 C          -0.3670    4.2929   -3.7195 C.3     1  UNL1       -0.0072
     26 C          -1.2751    3.6000   -2.7058 C.3     1  UNL1       -0.0556
     27 C           3.2329    0.7575   -3.0337 C.3     1  UNL1       -0.0562
     28 O          -0.0121    1.5271    0.0734 O.3     1  UNL1       -0.3383
     29 C           0.0407    0.0826    0.0958 C.3     1  UNL1        0.1952
     30 O           1.1429   -0.2924   -0.7494 O.3     1  UNL1       -0.3277
     31 C           0.2797   -0.4126    1.5254 C.3     1  UNL1       -0.0059
     32 C          -1.2441   -0.4968   -0.4377 C.ar    1  UNL1        0.0108
     33 C          -1.2305   -1.7027   -1.1134 C.ar    1  UNL1       -0.0535
     34 C          -2.4097   -2.2362   -1.5990 C.ar    1  UNL1       -0.0613
     35 C          -3.6011   -1.5594   -1.4169 C.ar    1  UNL1       -0.0617
     36 C          -3.6140   -0.3509   -0.7458 C.ar    1  UNL1       -0.0613
     37 C          -2.4355    0.1805   -0.2564 C.ar    1  UNL1       -0.0535
     38 H           3.6881   -1.5395    0.2956 H       1  UNL1        0.0307
     39 H           4.4271   -0.4702    1.4026 H       1  UNL1        0.0307
     40 H           2.6639   -0.7130    1.3831 H       1  UNL1        0.0307
     41 H           2.0939    3.9620   -0.0919 H       1  UNL1        0.0294
     42 H           0.5752    3.6430   -0.9684 H       1  UNL1        0.0294
     43 H           0.6264    0.1348   -3.0808 H       1  UNL1        0.0272
     44 H          -0.0316    1.4647   -2.1303 H       1  UNL1        0.0272
     45 H          -0.4310    1.8605   -4.5186 H       1  UNL1        0.0268
     46 H           1.2594    1.5740   -4.8955 H       1  UNL1        0.0268
     47 H           3.1656    5.3459   -2.1517 H       1  UNL1        0.0271
     48 H           2.5724    5.7668   -3.7696 H       1  UNL1        0.0271
     49 H           1.2434    6.9289   -2.0722 H       1  UNL1        0.0310
     50 H           0.8464    5.3981   -1.2782 H       1  UNL1        0.0310
     51 H          -0.4906    7.7114   -3.1580 H       1  UNL1        0.0652
     52 H          -3.0147    4.9160   -4.2696 H       1  UNL1        0.0345
     53 H          -2.8320    5.3616   -5.9195 H       1  UNL1        0.0345
     54 H          -0.4849    4.7128   -5.8176 H       1  UNL1        0.0278
     55 H          -1.4899    3.3460   -5.2805 H       1  UNL1        0.0278
     56 H          -0.7044    3.3663   -1.8070 H       1  UNL1        0.0238
     57 H          -2.1032    4.2605   -2.4488 H       1  UNL1        0.0238
     58 H          -1.6657    2.6787   -3.1380 H       1  UNL1        0.0238
     59 H           3.0459   -0.3120   -3.1293 H       1  UNL1        0.0236
     60 H           3.2589    1.2118   -4.0242 H       1  UNL1        0.0236
     61 H           4.1897    0.9160   -2.5361 H       1  UNL1        0.0236
     62 H          -0.5463   -0.0960    2.1624 H       1  UNL1        0.0285
     63 H           0.3435   -1.5007    1.5272 H       1  UNL1        0.0285
     64 H           1.2119    0.0067    1.9041 H       1  UNL1        0.0285
     65 H          -0.2991   -2.2296   -1.2589 H       1  UNL1        0.0622
     66 H          -2.3996   -3.1805   -2.1229 H       1  UNL1        0.0618
     67 H          -4.5220   -1.9749   -1.7986 H       1  UNL1        0.0618
     68 H          -4.5449    0.1779   -0.6036 H       1  UNL1        0.0618
     69 H          -2.4455    1.1247    0.2678 H       1  UNL1        0.0622
@<TRIPOS>BOND
     1     1     2    1
     2     1    38    1
     3     1    39    1
     4     1    40    1
     5     2     3    2
     6     2     4    1
     7     4    10    1
     8     4    30    1
     9     4     5    1
    10     5     6    1
    11     5     7    1
    12     5    28    1
    13     7     8    1
    14     7    41    1
    15     7    42    1
    16     8     9    1
    17     8    15    1
    18     8    10    1
    19    10    11    1
    20    10    27    1
    21    11    12    1
    22    11    43    1
    23    11    44    1
    24    12    13    1
    25    12    45    1
    26    12    46    1
    27    13    14    1
    28    13    25    1
    29    13    15    1
    30    15    16    1
    31    15    17    1
    32    17    18    1
    33    17    47    1
    34    17    48    1
    35    18    19    1
    36    18    49    1
    37    18    50    1
    38    19    25    1
    39    19    20    2
    40    20    21    1
    41    20    51    1
    42    21    22    2
    43    21    23    1
    44    23    24    1
    45    23    52    1
    46    23    53    1
    47    24    25    1
    48    24    54    1
    49    24    55    1
    50    25    26    1
    51    26    56    1
    52    26    57    1
    53    26    58    1
    54    27    59    1
    55    27    60    1
    56    27    61    1
    57    28    29    1
    58    29    30    1
    59    29    31    1
    60    29    32    1
    61    31    62    1
    62    31    63    1
    63    31    64    1
    64    32    37   ar
    65    32    33   ar
    66    33    34   ar
    67    33    65    1
    68    34    35   ar
    69    34    66    1
    70    35    36   ar
    71    35    67    1
    72    36    37   ar
    73    36    68    1
    74    37    69    1
