@<TRIPOS>MOLECULE
ZINC00057524
 42 43 0 0 0
SMALL
GASTEIGER

@<TRIPOS>ATOM
      1 C           4.0585    5.9783   -1.2406 C.3     1  UNL1       -0.0433
      2 C           3.1704    7.3055   -3.0606 C.3     1  UNL1       -0.0433
      3 C           1.6646    6.1371   -1.5673 C.3     1  UNL1       -0.0161
      4 C           1.3566    5.8834   -0.0903 C.3     1  UNL1        0.0577
      5 N           0.0730    5.1872    0.0283 N.pl3   1  UNL1       -0.2686
      6 C          -1.1680    5.9554    0.1543 C.3     1  UNL1        0.0425
      7 C          -1.4569    6.2076    1.6117 C.ar    1  UNL1       -0.0300
      8 C          -2.2197    5.3068    2.3311 C.ar    1  UNL1       -0.0571
      9 C          -2.4802    5.5355    3.6693 C.ar    1  UNL1       -0.0615
     10 C          -1.9871    6.6706    4.2853 C.ar    1  UNL1       -0.0617
     11 C          -1.2290    7.5742    3.5645 C.ar    1  UNL1       -0.0615
     12 C          -0.9637    7.3427    2.2277 C.ar    1  UNL1       -0.0571
     13 C           0.0327    3.7978    0.0212 C.ar    1  UNL1        0.2722
     14 C          -1.1952    3.1436    0.0294 C.ar    1  UNL1        0.0264
     15 C          -1.2206    1.7609    0.0173 C.ar    1  UNL1       -0.0486
     16 C          -0.0126    1.0758    0.0080 C.ar    1  UNL1        0.0022
     17 C           1.1691    1.7890    0.0005 C.ar    1  UNL1        0.1710
     18 H           4.0911    5.0782   -1.8545 H       1  UNL1        0.0777
     19 H           4.9994    6.5196   -1.3392 H       1  UNL1        0.0777
     20 H           3.9062    5.7013   -0.1974 H       1  UNL1        0.0777
     21 H           2.3726    7.9934   -3.3406 H       1  UNL1        0.0777
     22 H           4.1302    7.8187   -3.1206 H       1  UNL1        0.0777
     23 H           3.1708    6.4535   -3.7405 H       1  UNL1        0.0777
     24 H           1.7172    5.1855   -2.0962 H       1  UNL1        0.0830
     25 H           0.8764    6.7515   -2.0025 H       1  UNL1        0.0830
     26 H           1.3039    6.8351    0.4385 H       1  UNL1        0.0518
     27 H           2.1447    5.2690    0.3449 H       1  UNL1        0.0518
     28 H          -1.0602    6.9077   -0.3648 H       1  UNL1        0.0515
     29 H          -1.9904    5.3922   -0.2869 H       1  UNL1        0.0515
     30 H          -2.6087    4.4223    1.8488 H       1  UNL1        0.0621
     31 H          -3.0721    4.8293    4.2326 H       1  UNL1        0.0618
     32 H          -2.1937    6.8511    5.3299 H       1  UNL1        0.0618
     33 H          -0.8438    8.4610    4.0457 H       1  UNL1        0.0618
     34 H          -0.3715    8.0487    1.6645 H       1  UNL1        0.0621
     35 H          -2.1160    3.7079    0.0405 H       1  UNL1        0.0698
     36 H          -2.1588    1.2259    0.0192 H       1  UNL1        0.0622
     37 H           0.0021   -0.0041    0.0020 H       1  UNL1        0.0677
     38 H           2.1107    1.2603   -0.0113 H       1  UNL1        0.1376
     39 N           2.9508    6.8582   -1.6691 N.4     1  UNL1        0.2320
     40 H           2.9215    7.6806   -1.0551 H       1  UNL1        0.2028
     41 N           1.2320    3.1475    0.0068 N.ar    1  UNL1       -0.1981
     42 H           2.1262    3.6522    0.0010 H       1  UNL1        0.4542
@<TRIPOS>UNITY_ATOM_ATTR
39 1
charge 1
41 1
charge 1
@<TRIPOS>BOND
     1     1    18    1
     2     1    19    1
     3     1    20    1
     4     1    39    1
     5     2    21    1
     6     2    22    1
     7     2    23    1
     8     2    39    1
     9     3     4    1
    10     3    24    1
    11     3    25    1
    12     3    39    1
    13     4     5    1
    14     4    26    1
    15     4    27    1
    16     5     6    1
    17     5    13    1
    18     6     7    1
    19     6    28    1
    20     6    29    1
    21     7    12   ar
    22     7     8   ar
    23     8     9   ar
    24     8    30    1
    25     9    10   ar
    26     9    31    1
    27    10    11   ar
    28    10    32    1
    29    11    12   ar
    30    11    33    1
    31    12    34    1
    32    13    14   ar
    33    13    41   ar
    34    14    15   ar
    35    14    35    1
    36    15    16   ar
    37    15    36    1
    38    16    17   ar
    39    16    37    1
    40    17    38    1
    41    17    41   ar
    42    39    40    1
    43    41    42    1
