@<TRIPOS>MOLECULE
ZINC00601281
 63 65 0 0 0
SMALL
GASTEIGER

@<TRIPOS>ATOM
      1 C           2.2669   -3.2495    2.2539 C.3     1  UNL1       -0.0570
      2 C           2.2073   -2.3527    1.0157 C.3     1  UNL1        0.0217
      3 C           3.4803   -1.5526    0.9132 C.2     1  UNL1        0.2201
      4 O           4.3894   -1.7574    1.6895 O.2     1  UNL1       -0.2752
      5 N           3.6085   -0.6096   -0.0410 N.am    1  UNL1       -0.2627
      6 C           2.5242   -0.3010   -0.8698 C.ar    1  UNL1        0.0370
      7 C           2.0052   -1.2647   -1.7245 C.ar    1  UNL1       -0.0402
      8 C           0.9346   -0.9571   -2.5410 C.ar    1  UNL1       -0.0600
      9 C           0.3797    0.3091   -2.5084 C.ar    1  UNL1       -0.0616
     10 C           0.8942    1.2710   -1.6585 C.ar    1  UNL1       -0.0600
     11 C           1.9644    0.9696   -0.8392 C.ar    1  UNL1       -0.0402
     12 C           4.8831    0.0925   -0.2106 C.3     1  UNL1        0.0750
     13 C           4.8346    0.9407   -1.4844 C.3     1  UNL1        0.0117
     14 C           4.6453    0.0216   -2.6950 C.3     1  UNL1       -0.0298
     15 C           5.7938   -1.7924   -1.5714 C.3     1  UNL1       -0.0298
     16 C           6.0180   -0.9287   -0.3281 C.3     1  UNL1        0.0117
     17 C           5.6813   -1.7427   -3.9891 C.3     1  UNL1       -0.0116
     18 C           5.8945   -0.8413   -5.2069 C.3     1  UNL1        0.0883
     19 N           5.8196   -1.6458   -6.4289 N.ar    1  UNL1       -0.1884
     20 C           4.7063   -1.9031   -7.1488 C.ar    1  UNL1        0.3643
     21 O           3.5768   -1.5141   -6.9100 O.2     1  UNL1       -0.2432
     22 N           5.0930   -2.6770   -8.1859 N.ar    1  UNL1       -0.1938
     23 N           6.4737   -2.8781   -8.0686 N.ar    1  UNL1       -0.0428
     24 N           6.8901   -2.2835   -7.0676 N.ar    1  UNL1       -0.0426
     25 C           4.2263   -3.2091   -9.2403 C.3     1  UNL1        0.0456
     26 C           4.1635   -2.2130  -10.4000 C.3     1  UNL1       -0.0453
     27 C           5.1329    0.9977    0.9973 C.3     1  UNL1        0.0694
     28 O           4.0532    1.9245    1.1293 O.3     1  UNL1       -0.3808
     29 C           4.1888    2.8214    2.2335 C.3     1  UNL1        0.0365
     30 H           1.3462   -3.8282    2.3280 H       1  UNL1        0.0234
     31 H           3.1164   -3.9274    2.1709 H       1  UNL1        0.0234
     32 H           2.3806   -2.6319    3.1448 H       1  UNL1        0.0234
     33 H           1.3578   -1.6748    1.0987 H       1  UNL1        0.0356
     34 H           2.0936   -2.9703    0.1249 H       1  UNL1        0.0356
     35 H           2.4386   -2.2536   -1.7509 H       1  UNL1        0.0636
     36 H           0.5305   -1.7061   -3.2059 H       1  UNL1        0.0618
     37 H          -0.4543    0.5487   -3.1513 H       1  UNL1        0.0618
     38 H           0.4589    2.2591   -1.6356 H       1  UNL1        0.0618
     39 H           2.3655    1.7211   -0.1753 H       1  UNL1        0.0636
     40 H           4.0018    1.6412   -1.4237 H       1  UNL1        0.0339
     41 H           5.7685    1.4929   -1.5897 H       1  UNL1        0.0339
     42 H           4.6251    0.6203   -3.6056 H       1  UNL1        0.0815
     43 H           3.7047   -0.5201   -2.5956 H       1  UNL1        0.0815
     44 H           6.6078   -2.5112   -1.6658 H       1  UNL1        0.0815
     45 H           4.8477   -2.3255   -1.4775 H       1  UNL1        0.0815
     46 H           6.9704   -0.4058   -0.4151 H       1  UNL1        0.0339
     47 H           6.0305   -1.5625    0.5586 H       1  UNL1        0.0339
     48 H           6.4539   -2.5112   -3.9661 H       1  UNL1        0.0833
     49 H           4.7010   -2.2148   -4.0537 H       1  UNL1        0.0833
     50 H           5.1219   -0.0728   -5.2298 H       1  UNL1        0.0564
     51 H           6.8748   -0.3692   -5.1422 H       1  UNL1        0.0564
     52 H           4.6286   -4.1573   -9.5972 H       1  UNL1        0.0508
     53 H           3.2241   -3.3666   -8.8419 H       1  UNL1        0.0508
     54 H           3.7612   -1.2649  -10.0431 H       1  UNL1        0.0247
     55 H           5.1657   -2.0556  -10.7984 H       1  UNL1        0.0247
     56 H           3.5187   -2.6090  -11.1845 H       1  UNL1        0.0247
     57 H           5.2019    0.3894    1.8992 H       1  UNL1        0.0581
     58 H           6.0653    1.5440    0.8553 H       1  UNL1        0.0581
     59 H           3.3299    3.4918    2.2647 H       1  UNL1        0.0523
     60 H           4.2382    2.2509    3.1610 H       1  UNL1        0.0523
     61 H           5.1017    3.4055    2.1172 H       1  UNL1        0.0523
     62 N           5.7823   -0.9209   -2.7654 N.4     1  UNL1        0.2366
     63 H           6.6577   -0.3851   -2.7950 H       1  UNL1        0.2034
@<TRIPOS>UNITY_ATOM_ATTR
62 1
charge 1
@<TRIPOS>BOND
     1     1     2    1
     2     1    30    1
     3     1    31    1
     4     1    32    1
     5     2     3    1
     6     2    33    1
     7     2    34    1
     8     3     4    2
     9     3     5   am
    10     5     6    1
    11     5    12    1
    12     6    11   ar
    13     6     7   ar
    14     7     8   ar
    15     7    35    1
    16     8     9   ar
    17     8    36    1
    18     9    10   ar
    19     9    37    1
    20    10    11   ar
    21    10    38    1
    22    11    39    1
    23    12    16    1
    24    12    13    1
    25    12    27    1
    26    13    14    1
    27    13    40    1
    28    13    41    1
    29    14    42    1
    30    14    43    1
    31    14    62    1
    32    15    16    1
    33    15    44    1
    34    15    45    1
    35    15    62    1
    36    16    46    1
    37    16    47    1
    38    17    18    1
    39    17    48    1
    40    17    49    1
    41    17    62    1
    42    18    19    1
    43    18    50    1
    44    18    51    1
    45    19    24   ar
    46    19    20   ar
    47    20    21    2
    48    20    22   ar
    49    22    23   ar
    50    22    25    1
    51    23    24   ar
    52    25    26    1
    53    25    52    1
    54    25    53    1
    55    26    54    1
    56    26    55    1
    57    26    56    1
    58    27    28    1
    59    27    57    1
    60    27    58    1
    61    28    29    1
    62    29    59    1
    63    29    60    1
    64    29    61    1
    65    62    63    1
