@<TRIPOS>MOLECULE
ZINC00538447
 60 63 0 0 0
SMALL
GASTEIGER

@<TRIPOS>ATOM
      1 C           2.4253   14.7313   -0.6481 C.3     1  UNL1        0.0332
      2 C           1.2318   14.4631   -1.5282 C.2     1  UNL1        0.3041
      3 O           0.4209   15.3361   -1.7291 O.2     1  UNL1       -0.2512
      4 O           1.0695   13.2544   -2.0891 O.3     1  UNL1       -0.4594
      5 C          -0.1029   13.0676   -2.9249 C.3     1  UNL1        0.1320
      6 C          -0.1170   11.6387   -3.4718 C.3     1  UNL1        0.0036
      7 C          -1.6519   10.6698   -1.8687 C.3     1  UNL1        0.0096
      8 C          -1.7488    9.7319   -0.6631 C.3     1  UNL1        0.0095
      9 C           0.0719    8.4055   -1.5487 C.3     1  UNL1        0.0095
     10 C           0.1688    9.3434   -2.7543 C.3     1  UNL1        0.0096
     11 C          -1.4631    7.4366    0.0544 C.3     1  UNL1       -0.0300
     12 C          -1.2407    6.0119   -0.4570 C.3     1  UNL1        0.0036
     13 C          -1.3971    5.0241    0.7009 C.3     1  UNL1        0.0221
     14 N          -1.1842    3.6599    0.2112 N.pl3   1  UNL1       -0.2981
     15 C           0.1151    3.1607    0.2439 C.ar    1  UNL1        0.0479
     16 C           1.1783    4.0580    0.2506 C.ar    1  UNL1       -0.0393
     17 C           2.4805    3.5975    0.2899 C.ar    1  UNL1       -0.0599
     18 C           2.7377    2.2400    0.3234 C.ar    1  UNL1       -0.0606
     19 C           1.6888    1.3388    0.3158 C.ar    1  UNL1       -0.0462
     20 C           0.3788    1.7940    0.2691 C.ar    1  UNL1        0.0341
     21 S          -0.9433    0.6309    0.2565 S.3     1  UNL1       -0.0857
     22 C          -2.3312    1.5704   -0.2853 C.ar    1  UNL1        0.0342
     23 C          -2.2966    2.9619   -0.2508 C.ar    1  UNL1        0.0493
     24 C          -3.4046    3.6802   -0.6880 C.ar    1  UNL1       -0.0209
     25 C          -4.5287    3.0191   -1.1486 C.ar    1  UNL1        0.0428
     26 C          -4.5591    1.6372   -1.1790 C.ar    1  UNL1       -0.0422
     27 C          -3.4618    0.9134   -0.7482 C.ar    1  UNL1       -0.0448
     28 CL         -5.9054    3.9272   -1.6908 Cl      1  UNL1       -0.0835
     29 H           3.3403   14.5820   -1.2212 H       1  UNL1        0.0342
     30 H           2.3866   15.7589   -0.2866 H       1  UNL1        0.0342
     31 H           2.4122   14.0470    0.2003 H       1  UNL1        0.0342
     32 H          -0.0740   13.7739   -3.7546 H       1  UNL1        0.0752
     33 H          -1.0021   13.2389   -2.3331 H       1  UNL1        0.0752
     34 H           0.8188   11.4406   -3.9946 H       1  UNL1        0.0848
     35 H          -0.9513   11.5226   -4.1636 H       1  UNL1        0.0848
     36 H          -2.3131   10.3152   -2.6593 H       1  UNL1        0.0868
     37 H          -1.9476   11.6760   -1.5713 H       1  UNL1        0.0868
     38 H          -2.7809    9.6928   -0.3149 H       1  UNL1        0.0868
     39 H          -1.1083   10.1016    0.1376 H       1  UNL1        0.0868
     40 H           0.7331    8.7601   -0.7580 H       1  UNL1        0.0868
     41 H           0.3672    7.3993   -1.8461 H       1  UNL1        0.0868
     42 H          -0.4717    8.9738   -3.5550 H       1  UNL1        0.0868
     43 H           1.2009    9.3826   -3.1025 H       1  UNL1        0.0868
     44 H          -2.4669    7.5207    0.4707 H       1  UNL1        0.0815
     45 H          -0.7290    7.6639    0.8275 H       1  UNL1        0.0815
     46 H          -0.2368    5.9278   -0.8733 H       1  UNL1        0.0332
     47 H          -1.9748    5.7847   -1.2301 H       1  UNL1        0.0332
     48 H          -2.4010    5.1082    1.1171 H       1  UNL1        0.0470
     49 H          -0.6630    5.2514    1.4739 H       1  UNL1        0.0470
     50 H           0.9849    5.1202    0.2248 H       1  UNL1        0.0636
     51 H           3.3002    4.3007    0.2940 H       1  UNL1        0.0618
     52 H           3.7566    1.8833    0.3551 H       1  UNL1        0.0618
     53 H           1.8898    0.2780    0.3417 H       1  UNL1        0.0629
     54 H          -3.3871    4.7599   -0.6673 H       1  UNL1        0.0651
     55 H          -5.4383    1.1234   -1.5389 H       1  UNL1        0.0632
     56 H          -3.4853   -0.1660   -0.7726 H       1  UNL1        0.0630
     57 N          -0.2510   10.6984   -2.3387 N.4     1  UNL1        0.2451
     58 H           0.3525   11.0139   -1.5703 H       1  UNL1        0.2039
     59 N          -1.3292    8.3770   -1.0786 N.4     1  UNL1        0.2427
     60 H          -1.9328    8.0617   -1.8470 H       1  UNL1        0.2038
@<TRIPOS>UNITY_ATOM_ATTR
57 1
charge 1
59 1
charge 1
@<TRIPOS>BOND
     1     1     2    1
     2     1    29    1
     3     1    30    1
     4     1    31    1
     5     2     3    2
     6     2     4    1
     7     4     5    1
     8     5     6    1
     9     5    32    1
    10     5    33    1
    11     6    34    1
    12     6    35    1
    13     6    57    1
    14     7     8    1
    15     7    36    1
    16     7    37    1
    17     7    57    1
    18     8    38    1
    19     8    39    1
    20     8    59    1
    21     9    10    1
    22     9    40    1
    23     9    41    1
    24     9    59    1
    25    10    42    1
    26    10    43    1
    27    10    57    1
    28    11    12    1
    29    11    44    1
    30    11    45    1
    31    11    59    1
    32    12    13    1
    33    12    46    1
    34    12    47    1
    35    13    14    1
    36    13    48    1
    37    13    49    1
    38    14    23    1
    39    14    15    1
    40    15    20   ar
    41    15    16   ar
    42    16    17   ar
    43    16    50    1
    44    17    18   ar
    45    17    51    1
    46    18    19   ar
    47    18    52    1
    48    19    20   ar
    49    19    53    1
    50    20    21    1
    51    21    22    1
    52    22    27   ar
    53    22    23   ar
    54    23    24   ar
    55    24    25   ar
    56    24    54    1
    57    25    26   ar
    58    25    28    1
    59    26    27   ar
    60    26    55    1
    61    27    56    1
    62    57    58    1
    63    59    60    1
