@<TRIPOS>MOLECULE
ZINC03831052
 55 58 0 0 0
SMALL
GASTEIGER

@<TRIPOS>ATOM
      1 C           1.3976    7.2643   -0.6085 C.3     1  UNL1       -0.0426
      2 C           2.2384    5.3519    0.6157 C.3     1  UNL1       -0.0426
      3 C          -0.0950    5.4498   -0.0233 C.3     1  UNL1        0.0465
      4 H          -0.4065    6.0655    0.8205 H       1  UNL1        0.0939
      5 C          -0.1185    3.9952    0.3959 C.3     1  UNL1        0.0791
      6 H           0.3636    3.9229    1.3708 H       1  UNL1        0.0423
      7 C           0.6537    3.1003   -0.5705 C.3     1  UNL1        0.0781
      8 H           1.6129    3.5576   -0.8131 H       1  UNL1        0.0609
      9 C           0.8789    1.7603    0.1303 C.3     1  UNL1        0.0427
     10 H           1.5473    1.9187    0.9766 H       1  UNL1        0.0425
     11 C           1.5110    0.7692   -0.8173 C.2     1  UNL1       -0.0364
     12 C           2.0126    1.1504   -1.9857 C.2     1  UNL1       -0.0942
     13 C           1.5467   -0.6465   -0.3859 C.ar    1  UNL1       -0.0074
     14 C           2.5491   -1.5083   -0.8065 C.ar    1  UNL1       -0.0534
     15 C           2.5678   -2.8138   -0.3484 C.ar    1  UNL1       -0.0577
     16 C           1.5944   -3.2665    0.5235 C.ar    1  UNL1       -0.0194
     17 C           0.5765   -2.4240    0.9471 C.ar    1  UNL1        0.1282
     18 C           0.5374   -1.1036    0.4881 C.ar    1  UNL1        0.0708
     19 C          -0.5394   -0.1867    0.8963 C.2     1  UNL1        0.1972
     20 O          -1.5274   -0.6227    1.4602 O.2     1  UNL1       -0.2867
     21 C          -0.4288    1.2103    0.6340 C.2     1  UNL1        0.0503
     22 C          -1.5019    1.9841    0.8300 C.2     1  UNL1        0.1412
     23 C          -1.5402    3.4647    0.5629 C.3     1  UNL1        0.1960
     24 C          -2.2770    3.6666   -0.7487 C.2     1  UNL1        0.2109
     25 O          -3.0517    2.8255   -1.1556 O.2     1  UNL1       -0.2882
     26 C          -2.0396    4.8883   -1.5145 C.2     1  UNL1        0.1248
     27 C          -1.0018    5.7239   -1.1854 C.2     1  UNL1        0.1579
     28 O          -0.7923    6.8215   -1.9272 O.2     1  UNL1       -0.5050
     29 C          -2.9191    5.2249   -2.6453 C.2     1  UNL1        0.2485
     30 O          -4.0485    5.6264   -2.4388 O.2     1  UNL1       -0.2702
     31 N          -2.4731    5.0883   -3.9098 N.am    1  UNL1       -0.3252
     32 O          -2.2072    4.1602    1.6181 O.3     1  UNL1       -0.3730
     33 O          -2.6230    1.3994    1.2976 O.2     1  UNL1       -0.5072
     34 O          -0.3745   -2.8782    1.8016 O.3     1  UNL1       -0.5060
     35 O          -0.1061    2.9027   -1.7645 O.3     1  UNL1       -0.3902
     36 H           0.9267    7.7938    0.2198 H       1  UNL1        0.0778
     37 H           2.4513    7.5381   -0.6626 H       1  UNL1        0.0778
     38 H           0.9033    7.5359   -1.5412 H       1  UNL1        0.0778
     39 H           2.1775    4.2672    0.7038 H       1  UNL1        0.0778
     40 H           3.2471    5.6361    0.3159 H       1  UNL1        0.0778
     41 H           2.0030    5.8084    1.5771 H       1  UNL1        0.0778
     42 H           2.4835    0.4258   -2.6334 H       1  UNL1        0.0538
     43 H           1.9497    2.1851   -2.2886 H       1  UNL1        0.0538
     44 H           3.3117   -1.1617   -1.4882 H       1  UNL1        0.0624
     45 H           3.3486   -3.4849   -0.6747 H       1  UNL1        0.0619
     46 H           1.6267   -4.2861    0.8780 H       1  UNL1        0.0654
     47 H          -1.4732    6.8647   -2.6583 H       1  UNL1        0.2919
     48 H          -1.5999    4.7002   -4.0768 H       1  UNL1        0.1453
     49 H          -3.0252    5.3782   -4.6528 H       1  UNL1        0.1453
     50 H          -3.1156    3.8657    1.7707 H       1  UNL1        0.2113
     51 H          -3.3415    2.0878    1.3967 H       1  UNL1        0.2918
     52 H          -1.1457   -3.2630    1.3632 H       1  UNL1        0.2922
     53 H          -0.1436    3.6790   -2.3398 H       1  UNL1        0.2098
     54 N           1.2845    5.8027   -0.4195 N.4     1  UNL1        0.2389
     55 H           1.5074    5.3337   -1.3053 H       1  UNL1        0.2035
@<TRIPOS>UNITY_ATOM_ATTR
54 1
charge 1
@<TRIPOS>BOND
     1     1    36    1
     2     1    37    1
     3     1    38    1
     4     1    54    1
     5     2    39    1
     6     2    40    1
     7     2    41    1
     8     2    54    1
     9     3     4    1
    10     3    27    1
    11     3     5    1
    12     3    54    1
    13     5     6    1
    14     5    23    1
    15     5     7    1
    16     7     8    1
    17     7     9    1
    18     7    35    1
    19     9    10    1
    20     9    21    1
    21     9    11    1
    22    11    12    2
    23    11    13    1
    24    12    42    1
    25    12    43    1
    26    13    18   ar
    27    13    14   ar
    28    14    15   ar
    29    14    44    1
    30    15    16   ar
    31    15    45    1
    32    16    17   ar
    33    16    46    1
    34    17    18   ar
    35    17    34    1
    36    18    19    1
    37    19    20    2
    38    19    21    1
    39    21    22    2
    40    22    23    1
    41    22    33    1
    42    23    24    1
    43    23    32    1
    44    24    25    2
    45    24    26    1
    46    26    27    2
    47    26    29    1
    48    27    28    1
    49    28    47    1
    50    29    30    2
    51    29    31   am
    52    31    48    1
    53    31    49    1
    54    32    50    1
    55    33    51    1
    56    34    52    1
    57    35    53    1
    58    54    55    1
