@<TRIPOS>MOLECULE
ZINC00001639
 42 45 0 0 0
SMALL
GASTEIGER

@<TRIPOS>ATOM
      1 C          -3.8187    1.0655   -1.0593 C.3     1  UNL1       -0.0428
      2 C          -2.5779    3.0836   -0.5589 C.3     1  UNL1        0.0049
      3 C          -1.2029    3.6098   -0.1339 C.3     1  UNL1        0.1204
      4 N          -0.8718    3.0421    1.1820 N.pl3   1  UNL1       -0.2096
      5 C          -0.9822    1.5863    1.3601 C.3     1  UNL1        0.1204
      6 C          -2.3662    1.1403    0.8765 C.3     1  UNL1        0.0049
      7 C          -0.4701    3.8524    2.2196 C.2     1  UNL1        0.3252
      8 N          -0.5267    5.1253    2.0315 N.2     1  UNL1       -0.0376
      9 C          -0.1627    6.0996    2.9122 C.ar    1  UNL1        0.2183
     10 C           0.4712    7.2458    2.4223 C.ar    1  UNL1       -0.0071
     11 C           0.7941    8.2793    3.2782 C.ar    1  UNL1       -0.0574
     12 C           0.4928    8.1865    4.6242 C.ar    1  UNL1       -0.0580
     13 C          -0.1216    7.0507    5.1223 C.ar    1  UNL1       -0.0150
     14 C          -0.4401    6.0008    4.2769 C.ar    1  UNL1        0.1789
     15 O          -1.0135    4.8863    4.7994 O.3     1  UNL1       -0.4508
     16 C          -0.3310    3.7186    4.7052 C.ar    1  UNL1        0.1436
     17 C          -0.0059    3.1931    3.4502 C.ar    1  UNL1        0.1091
     18 C           0.7623    2.0302    3.3696 C.ar    1  UNL1       -0.0249
     19 C           1.1793    1.3970    4.5241 C.ar    1  UNL1        0.0420
     20 C           0.8349    1.9090    5.7632 C.ar    1  UNL1       -0.0399
     21 C           0.0817    3.0656    5.8544 C.ar    1  UNL1       -0.0171
     22 CL          2.1378   -0.0467    4.4208 Cl      1  UNL1       -0.0835
     23 H          -3.9125    1.3715   -2.1012 H       1  UNL1        0.0778
     24 H          -3.7925   -0.0226   -1.0011 H       1  UNL1        0.0778
     25 H          -4.6715    1.4392   -0.4926 H       1  UNL1        0.0778
     26 H          -2.7911    3.4048   -1.5785 H       1  UNL1        0.0852
     27 H          -3.3412    3.4760    0.1131 H       1  UNL1        0.0852
     28 H          -0.4526    3.3046   -0.8633 H       1  UNL1        0.0780
     29 H          -1.2317    4.6974   -0.0673 H       1  UNL1        0.0780
     30 H          -0.8647    1.3365    2.4145 H       1  UNL1        0.0780
     31 H          -0.2109    1.0836    0.7766 H       1  UNL1        0.0780
     32 H          -3.1320    1.5598    1.5289 H       1  UNL1        0.0852
     33 H          -2.4262    0.0522    0.8980 H       1  UNL1        0.0852
     34 H           0.7083    7.3227    1.3714 H       1  UNL1        0.0662
     35 H           1.2836    9.1626    2.8955 H       1  UNL1        0.0619
     36 H           0.7374    9.0021    5.2885 H       1  UNL1        0.0619
     37 H          -0.3539    6.9830    6.1749 H       1  UNL1        0.0656
     38 H           1.0311    1.6261    2.4047 H       1  UNL1        0.0642
     39 H           1.1557    1.4036    6.6621 H       1  UNL1        0.0633
     40 H          -0.1847    3.4603    6.8238 H       1  UNL1        0.0655
     41 N          -2.5556    1.6053   -0.5148 N.4     1  UNL1        0.2384
     42 H          -1.7739    1.2670   -1.0880 H       1  UNL1        0.2033
@<TRIPOS>UNITY_ATOM_ATTR
41 1
charge 1
@<TRIPOS>BOND
     1     1    23    1
     2     1    24    1
     3     1    25    1
     4     1    41    1
     5     2     3    1
     6     2    26    1
     7     2    27    1
     8     2    41    1
     9     3     4    1
    10     3    28    1
    11     3    29    1
    12     4     5    1
    13     4     7    1
    14     5     6    1
    15     5    30    1
    16     5    31    1
    17     6    32    1
    18     6    33    1
    19     6    41    1
    20     7    17    1
    21     7     8    2
    22     8     9    1
    23     9    14   ar
    24     9    10   ar
    25    10    11   ar
    26    10    34    1
    27    11    12   ar
    28    11    35    1
    29    12    13   ar
    30    12    36    1
    31    13    14   ar
    32    13    37    1
    33    14    15    1
    34    15    16    1
    35    16    21   ar
    36    16    17   ar
    37    17    18   ar
    38    18    19   ar
    39    18    38    1
    40    19    20   ar
    41    19    22    1
    42    20    21   ar
    43    20    39    1
    44    21    40    1
    45    41    42    1
