@<TRIPOS>MOLECULE
ZINC03830579
 52 55 0 0 0
SMALL
GASTEIGER

@<TRIPOS>ATOM
      1 C           6.3232    7.6844   -3.8855 C.3     1  UNL1       -0.0411
      2 N           6.3185    6.2569   -3.5390 N.4     1  UNL1        0.2438
      3 C           7.1830    6.0714   -2.3712 C.3     1  UNL1       -0.0298
      4 C           7.2117    4.5950   -1.9695 C.3     1  UNL1       -0.0059
      5 C           6.3183    3.8026   -2.9330 C.3     1  UNL1        0.0108
      6 C           6.8466    4.0050   -4.3593 C.3     1  UNL1       -0.0059
      7 C           6.8292    5.5002   -4.6845 C.3     1  UNL1       -0.0298
      8 C           4.8971    4.3759   -2.8575 C.3     1  UNL1        0.1457
      9 H           4.2491    3.8440   -3.5541 H       1  UNL1        0.0791
     10 C           4.9428    5.8594   -3.2303 C.3     1  UNL1        0.0079
     11 O           4.3844    4.2292   -1.5070 O.3     1  UNL1       -0.4532
     12 C           3.0559    4.0936   -1.3710 C.2     1  UNL1        0.3490
     13 O           2.3450    4.0974   -2.3480 O.2     1  UNL1       -0.2468
     14 C           2.4510    3.9366    0.0003 C.3     1  UNL1        0.2134
     15 C           1.1326    3.2153   -0.1117 C.ar    1  UNL1       -0.0008
     16 C           0.9812    1.9608    0.4490 C.ar    1  UNL1       -0.0550
     17 C          -0.2283    1.2994    0.3465 C.ar    1  UNL1       -0.0614
     18 C          -1.2846    1.8899   -0.3215 C.ar    1  UNL1       -0.0617
     19 C          -1.1344    3.1460   -0.8788 C.ar    1  UNL1       -0.0614
     20 C           0.0748    3.8078   -0.7756 C.ar    1  UNL1       -0.0550
     21 C           2.2292    5.2967    0.6102 C.ar    1  UNL1       -0.0008
     22 C           1.7645    6.3375   -0.1719 C.ar    1  UNL1       -0.0550
     23 C           1.5565    7.5838    0.3886 C.ar    1  UNL1       -0.0614
     24 C           1.8231    7.7921    1.7289 C.ar    1  UNL1       -0.0617
     25 C           2.2927    6.7527    2.5099 C.ar    1  UNL1       -0.0614
     26 C           2.4958    5.5050    1.9505 C.ar    1  UNL1       -0.0550
     27 O           3.3379    3.1820    0.8286 O.3     1  UNL1       -0.3698
     28 H           5.9483    8.2643   -3.0421 H       1  UNL1        0.0778
     29 H           7.3406    7.9984   -4.1186 H       1  UNL1        0.0778
     30 H           5.6842    7.8499   -4.7529 H       1  UNL1        0.0778
     31 H           8.1937    6.4000   -2.6135 H       1  UNL1        0.0815
     32 H           6.8011    6.6648   -1.5405 H       1  UNL1        0.0815
     33 H           6.8378    4.4861   -0.9515 H       1  UNL1        0.0321
     34 H           8.2337    4.2205   -2.0274 H       1  UNL1        0.0321
     35 H           6.3118    2.7425   -2.6795 H       1  UNL1        0.0342
     36 H           6.2096    3.4704   -5.0640 H       1  UNL1        0.0321
     37 H           7.8667    3.6276   -4.4301 H       1  UNL1        0.0321
     38 H           6.1879    5.6750   -5.5484 H       1  UNL1        0.0815
     39 H           7.8416    5.8321   -4.9147 H       1  UNL1        0.0815
     40 H           4.3120    6.0328   -4.1022 H       1  UNL1        0.0852
     41 H           4.5734    6.4539   -2.3947 H       1  UNL1        0.0852
     42 H           1.8078    1.4977    0.9673 H       1  UNL1        0.0621
     43 H          -0.3466    0.3193    0.7846 H       1  UNL1        0.0618
     44 H          -2.2282    1.3712   -0.4054 H       1  UNL1        0.0618
     45 H          -1.9608    3.6088   -1.3978 H       1  UNL1        0.0618
     46 H           0.1932    4.7878   -1.2140 H       1  UNL1        0.0621
     47 H           1.5604    6.1759   -1.2201 H       1  UNL1        0.0621
     48 H           1.1898    8.3960   -0.2216 H       1  UNL1        0.0618
     49 H           1.6648    8.7670    2.1659 H       1  UNL1        0.0618
     50 H           2.5014    6.9155    3.5570 H       1  UNL1        0.0618
     51 H           2.8631    4.6930    2.5606 H       1  UNL1        0.0621
     52 H           3.5261    2.2936    0.4964 H       1  UNL1        0.2117
@<TRIPOS>UNITY_ATOM_ATTR
2 1
charge 1
@<TRIPOS>BOND
     1     1     2    1
     2     1    28    1
     3     1    29    1
     4     1    30    1
     5     2     7    1
     6     2    10    1
     7     2     3    1
     8     3     4    1
     9     3    31    1
    10     3    32    1
    11     4     5    1
    12     4    33    1
    13     4    34    1
    14     5     6    1
    15     5     8    1
    16     5    35    1
    17     6     7    1
    18     6    36    1
    19     6    37    1
    20     7    38    1
    21     7    39    1
    22     8     9    1
    23     8    10    1
    24     8    11    1
    25    10    40    1
    26    10    41    1
    27    11    12    1
    28    12    13    2
    29    12    14    1
    30    14    15    1
    31    14    21    1
    32    14    27    1
    33    15    20   ar
    34    15    16   ar
    35    16    17   ar
    36    16    42    1
    37    17    18   ar
    38    17    43    1
    39    18    19   ar
    40    18    44    1
    41    19    20   ar
    42    19    45    1
    43    20    46    1
    44    21    26   ar
    45    21    22   ar
    46    22    23   ar
    47    22    47    1
    48    23    24   ar
    49    23    48    1
    50    24    25   ar
    51    24    49    1
    52    25    26   ar
    53    25    50    1
    54    26    51    1
    55    27    52    1
