@<TRIPOS>MOLECULE
ZINC00113382
 32 32 0 0 0
SMALL
GASTEIGER

@<TRIPOS>ATOM
      1 C           1.8519   -0.1403   -1.7478 C.ar    1  UNK1       -0.0497
      2 C           2.5289   -0.5311   -2.8879 C.ar    1  UNK1        0.0159
      3 C           3.3903    0.3488   -3.5160 C.ar    1  UNK1        0.2732
      4 C           3.5708    1.6212   -3.0070 C.ar    1  UNK1        0.0159
      5 C           2.8899    2.0138   -1.8699 C.ar    1  UNK1       -0.0497
      6 C           2.0284    1.1339   -1.2418 C.ar    1  UNK1       -0.0169
      7 C           1.2864    1.5618   -0.0018 C.3     1  UNK1        0.1006
      8 H           1.1856    2.6471    0.0050 H       1  UNK1        0.0663
      9 C           2.0636    1.1140    1.2377 C.3     1  UNK1        0.0762
     10 H           3.0180    1.6389    1.2773 H       1  UNK1        0.0550
     11 C           1.2513    1.4372    2.4933 C.3     1  UNK1        0.0653
     12 O          -0.0445    0.8440    2.3882 O.3     1  UNK1       -0.3931
     13 N           2.3027   -0.3297    1.1689 N.am    1  UNK1       -0.3052
     14 C           3.3465   -0.8720    1.8269 C.2     0  UNK0        0.2462
     15 O           4.0878   -0.1647    2.4759 O.2     0  UNK0       -0.2729
     16 C           3.5925   -2.3571    1.7562 C.3     0  UNK0        0.1830
     17 CL          4.9598   -2.7924    2.8479 Cl      0  UNK0       -0.0945
     18 CL          2.1066   -3.2377    2.2736 Cl      0  UNK0       -0.0945
     19 O          -0.0110    0.9628    0.0073 O.3     1  UNK1       -0.3853
     20 N           4.1199   -0.0718   -4.7333 N.pl3   1  UNK1        0.0796
     21 O           4.8792    0.7034   -5.2865 O.2     1  UNK1        0.0414
     22 O           3.9608   -1.1930   -5.1818 O.co2   1  UNK1       -0.5760
     23 H           1.1822   -0.8292   -1.2545 H       1  UNK1        0.0623
     24 H           2.3881   -1.5254   -3.2854 H       1  UNK1        0.0685
     25 H           4.2441    2.3086   -3.4975 H       1  UNK1        0.0685
     26 H           3.0312    3.0079   -1.4720 H       1  UNK1        0.0623
     27 H           1.7631    1.0392    3.3695 H       1  UNK1        0.0576
     28 H           1.1492    2.5179    2.5918 H       1  UNK1        0.0576
     29 H          -0.6154    1.0083    3.1512 H       1  UNK1        0.2095
     30 H           1.7098   -0.8954    0.6499 H       1  UNK1        0.1492
     31 H           3.8420   -2.6357    0.7324 H       0  UNK0        0.0732
     32 H           0.0021   -0.0041    0.0020 H       1  UNK1        0.2103
@<TRIPOS>UNITY_ATOM_ATTR
20 1
charge 1
22 1
charge -1
@<TRIPOS>BOND
     1     1     6   ar
     2     1     2   ar
     3     1    23    1
     4     2     3   ar
     5     2    24    1
     6     3     4   ar
     7     3    20    1
     8     4     5   ar
     9     4    25    1
    10     5     6   ar
    11     5    26    1
    12     6     7    1
    13     7     8    1
    14     7     9    1
    15     7    19    1
    16     9    10    1
    17     9    11    1
    18     9    13    1
    19    11    12    1
    20    11    27    1
    21    11    28    1
    22    12    29    1
    23    13    14   am
    24    13    30    1
    25    14    15    2
    26    14    16    1
    27    16    17    1
    28    16    18    1
    29    16    31    1
    30    19    32    1
    31    20    21    2
    32    20    22    1
