@<TRIPOS>MOLECULE
ZINC00621890
 56 58 0 0 0
SMALL
GASTEIGER

@<TRIPOS>ATOM
      1 C          -0.6522    2.5730    6.1817 C.3     1  UNL1        0.0333
      2 C          -0.7359    1.3242    5.3424 C.2     1  UNL1        0.3047
      3 O          -1.8087    0.8113    5.1278 O.2     1  UNL1       -0.2511
      4 O           0.3812    0.7817    4.8331 O.3     1  UNL1       -0.4506
      5 C           0.2252   -0.4208    4.0343 C.3     1  UNL1        0.1947
      6 H          -0.6372   -0.9825    4.3934 H       1  UNL1        0.0848
      7 C           1.4888   -1.2881    4.1686 C.3     1  UNL1        0.0805
      8 H           1.8285   -1.2903    5.2043 H       1  UNL1        0.0506
      9 S           2.7695   -0.5534    3.0972 S.3     1  UNL1       -0.1111
     10 C           2.5744    1.1788    3.3659 C.ar    1  UNL1        0.0300
     11 C           3.5124    1.8900    4.0965 C.ar    1  UNL1       -0.0465
     12 C           3.3413    3.2491    4.2902 C.ar    1  UNL1       -0.0606
     13 C           2.2406    3.8957    3.7583 C.ar    1  UNL1       -0.0599
     14 C           1.3001    3.1900    3.0291 C.ar    1  UNL1       -0.0392
     15 C           1.4640    1.8289    2.8321 C.ar    1  UNL1        0.0500
     16 N           0.5208    1.0931    2.0984 N.am    1  UNL1       -0.2622
     17 C           0.0001   -0.0318    2.6041 C.2     1  UNL1        0.2623
     18 O          -0.6641   -0.7532    1.8902 O.2     1  UNL1       -0.2711
     19 C           0.0996    1.5612    0.7757 C.3     1  UNL1        0.0600
     20 C           1.0183    0.9649   -0.2927 C.3     1  UNL1       -0.0158
     21 C           1.5872    1.0793   -2.6434 C.3     1  UNL1       -0.0433
     22 C          -0.7310    0.9080   -1.9658 C.3     1  UNL1       -0.0433
     23 C           1.1933   -2.6968    3.7219 C.ar    1  UNL1       -0.0299
     24 C           1.1440   -3.7194    4.6512 C.ar    1  UNL1       -0.0539
     25 C           0.8678   -5.0106    4.2450 C.ar    1  UNL1       -0.0197
     26 C           0.6509   -5.2826    2.9020 C.ar    1  UNL1        0.1201
     27 C           0.7065   -4.2557    1.9709 C.ar    1  UNL1       -0.0197
     28 C           0.9776   -2.9653    2.3829 C.ar    1  UNL1       -0.0539
     29 O           0.3840   -6.5528    2.4993 O.3     1  UNL1       -0.4951
     30 C           0.3423   -7.5595    3.5127 C.3     1  UNL1        0.0788
     31 H           0.3886    2.8861    6.2643 H       1  UNL1        0.0342
     32 H          -1.2340    3.3661    5.7121 H       1  UNL1        0.0342
     33 H          -1.0505    2.3700    7.1758 H       1  UNL1        0.0342
     34 H           4.3723    1.3862    4.5127 H       1  UNL1        0.0629
     35 H           4.0703    3.8073    4.8588 H       1  UNL1        0.0618
     36 H           2.1147    4.9572    3.9126 H       1  UNL1        0.0618
     37 H           0.4416    3.6983    2.6156 H       1  UNL1        0.0636
     38 H           0.1585    2.6490    0.7395 H       1  UNL1        0.0521
     39 H          -0.9271    1.2465    0.5888 H       1  UNL1        0.0521
     40 H           0.9594   -0.1229   -0.2565 H       1  UNL1        0.0830
     41 H           2.0450    1.2796   -0.1058 H       1  UNL1        0.0830
     42 H           1.7033   -0.0040   -2.6767 H       1  UNL1        0.0777
     43 H           1.2497    1.4386   -3.6156 H       1  UNL1        0.0777
     44 H           2.5442    1.5399   -2.3980 H       1  UNL1        0.0777
     45 H          -1.4594    1.2441   -1.2279 H       1  UNL1        0.0777
     46 H          -1.0193    1.2709   -2.9524 H       1  UNL1        0.0777
     47 H          -0.6988   -0.1815   -1.9746 H       1  UNL1        0.0777
     48 H           1.3173   -3.5079    5.6960 H       1  UNL1        0.0622
     49 H           0.8250   -5.8083    4.9718 H       1  UNL1        0.0654
     50 H           0.5377   -4.4649    0.9249 H       1  UNL1        0.0654
     51 H           1.0213   -2.1656    1.6584 H       1  UNL1        0.0622
     52 H          -0.4332   -7.3131    4.2379 H       1  UNL1        0.0660
     53 H           0.1205   -8.5246    3.0573 H       1  UNL1        0.0660
     54 H           1.3079   -7.6086    4.0160 H       1  UNL1        0.0660
     55 N           0.5941    1.4629   -1.6181 N.4     1  UNL1        0.2320
     56 H           0.5283    2.4870   -1.5842 H       1  UNL1        0.2028
@<TRIPOS>UNITY_ATOM_ATTR
55 1
charge 1
@<TRIPOS>BOND
     1     1     2    1
     2     1    31    1
     3     1    32    1
     4     1    33    1
     5     2     3    2
     6     2     4    1
     7     4     5    1
     8     5     6    1
     9     5    17    1
    10     5     7    1
    11     7     8    1
    12     7     9    1
    13     7    23    1
    14     9    10    1
    15    10    15   ar
    16    10    11   ar
    17    11    12   ar
    18    11    34    1
    19    12    13   ar
    20    12    35    1
    21    13    14   ar
    22    13    36    1
    23    14    15   ar
    24    14    37    1
    25    15    16    1
    26    16    17   am
    27    16    19    1
    28    17    18    2
    29    19    20    1
    30    19    38    1
    31    19    39    1
    32    20    40    1
    33    20    41    1
    34    20    55    1
    35    21    42    1
    36    21    43    1
    37    21    44    1
    38    21    55    1
    39    22    45    1
    40    22    46    1
    41    22    47    1
    42    22    55    1
    43    23    28   ar
    44    23    24   ar
    45    24    25   ar
    46    24    48    1
    47    25    26   ar
    48    25    49    1
    49    26    27   ar
    50    26    29    1
    51    27    28   ar
    52    27    50    1
    53    28    51    1
    54    29    30    1
    55    30    52    1
    56    30    53    1
    57    30    54    1
    58    55    56    1
