@<TRIPOS>MOLECULE
ZINC03831331
 79 80 0 0 0
SMALL
GASTEIGER

@<TRIPOS>ATOM
      1 C           1.7649    8.5648    0.0002 C.3     1  UNL1       -0.0357
      2 C           1.5635    7.1237   -0.3920 C.2     1  UNL1        0.0039
      3 C           2.6151    6.2944   -0.4232 C.2     1  UNL1        0.0102
      4 C           2.4525    4.8782   -0.8032 C.2     1  UNL1        0.1905
      5 O           3.4160    4.1386   -0.8262 O.2     1  UNL1       -0.2869
      6 C           1.1122    4.3621   -1.1554 C.ar    1  UNL1        0.0327
      7 C           0.9321    3.0325   -1.5173 C.ar    1  UNL1       -0.0502
      8 C          -0.3348    2.5735   -1.8436 C.ar    1  UNL1       -0.0610
      9 C          -1.4184    3.4301   -1.8168 C.ar    1  UNL1       -0.0610
     10 C          -1.2556    4.7578   -1.4523 C.ar    1  UNL1       -0.0502
     11 C           0.0082    5.2328   -1.1226 C.ar    1  UNL1        0.0327
     12 C           0.2110    6.6459   -0.7366 C.2     1  UNL1        0.1900
     13 O          -0.7326    7.4102   -0.7031 O.2     1  UNL1       -0.2870
     14 C           3.9832    6.8153   -0.0652 C.3     1  UNL1       -0.0052
     15 C           4.2610    6.5387    1.3899 C.2     1  UNL1       -0.0806
     16 C           5.3398    5.8818    1.7375 C.2     1  UNL1       -0.0762
     17 C           6.2330    5.2865    0.6797 C.3     1  UNL1       -0.0438
     18 C           5.6877    5.7215    3.1950 C.3     1  UNL1       -0.0320
     19 C           5.1503    4.3821    3.7031 C.3     1  UNL1       -0.0491
     20 C           5.5034    4.2193    5.1829 C.3     1  UNL1       -0.0502
     21 C           4.9660    2.8799    5.6911 C.3     1  UNL1       -0.0439
     22 H           3.8965    2.8177    5.4901 H       1  UNL1        0.0298
     23 C           5.6869    1.7363    4.9747 C.3     1  UNL1       -0.0624
     24 C           5.2090    2.7715    7.1978 C.3     1  UNL1       -0.0505
     25 C           4.5621    1.4903    7.7278 C.3     1  UNL1       -0.0526
     26 C           4.8050    1.3819    9.2345 C.3     1  UNL1       -0.0505
     27 C           4.1582    0.1007    9.7645 C.3     1  UNL1       -0.0439
     28 H           4.5316   -0.7547    9.2014 H       1  UNL1        0.0298
     29 C           2.6393    0.1925    9.6050 C.3     1  UNL1       -0.0624
     30 C           4.5061   -0.0718   11.2444 C.3     1  UNL1       -0.0505
     31 C           3.9649   -1.4134   11.7425 C.3     1  UNL1       -0.0526
     32 C           4.3128   -1.5858   13.2225 C.3     1  UNL1       -0.0507
     33 C           3.7716   -2.9275   13.7206 C.3     1  UNL1       -0.0467
     34 C           4.4932   -4.0678   12.9996 C.3     1  UNL1       -0.0627
     35 C           4.0093   -3.0455   15.2274 C.3     1  UNL1       -0.0627
     36 H           0.8084    9.0866   -0.0297 H       1  UNL1        0.0279
     37 H           2.1737    8.6130    1.0095 H       1  UNL1        0.0279
     38 H           2.4584    9.0371   -0.6956 H       1  UNL1        0.0279
     39 H           1.7760    2.3591   -1.5439 H       1  UNL1        0.0625
     40 H          -0.4748    1.5402   -2.1248 H       1  UNL1        0.0618
     41 H          -2.3996    3.0620   -2.0777 H       1  UNL1        0.0618
     42 H          -2.1071    5.4216   -1.4289 H       1  UNL1        0.0625
     43 H           4.7336    6.3176   -0.6793 H       1  UNL1        0.0357
     44 H           4.0212    7.8898   -0.2445 H       1  UNL1        0.0357
     45 H           3.5708    6.8821    2.1463 H       1  UNL1        0.0575
     46 H           6.9283    6.0459    0.3218 H       1  UNL1        0.0274
     47 H           6.7924    4.4527    1.1037 H       1  UNL1        0.0274
     48 H           5.6244    4.9305   -0.1515 H       1  UNL1        0.0274
     49 H           6.7707    5.7475    3.3150 H       1  UNL1        0.0310
     50 H           5.2390    6.5336    3.7671 H       1  UNL1        0.0310
     51 H           4.0672    4.3561    3.5831 H       1  UNL1        0.0268
     52 H           5.5989    3.5700    3.1311 H       1  UNL1        0.0268
     53 H           6.5865    4.2453    5.3030 H       1  UNL1        0.0268
     54 H           5.0548    5.0314    5.7550 H       1  UNL1        0.0268
     55 H           5.3041    0.7821    5.3367 H       1  UNL1        0.0232
     56 H           5.5139    1.8135    3.9013 H       1  UNL1        0.0232
     57 H           6.7564    1.7985    5.1757 H       1  UNL1        0.0232
     58 H           6.2812    2.7444    7.3919 H       1  UNL1        0.0268
     59 H           4.7706    3.6343    7.6995 H       1  UNL1        0.0268
     60 H           3.4899    1.5175    7.5337 H       1  UNL1        0.0265
     61 H           5.0004    0.6276    7.2261 H       1  UNL1        0.0265
     62 H           5.8773    1.3548    9.4286 H       1  UNL1        0.0268
     63 H           4.3667    2.2446    9.7362 H       1  UNL1        0.0268
     64 H           2.3915    0.3154    8.5507 H       1  UNL1        0.0232
     65 H           2.1785   -0.7203    9.9826 H       1  UNL1        0.0232
     66 H           2.2659    1.0478   10.1681 H       1  UNL1        0.0232
     67 H           5.5887   -0.0481   11.3683 H       1  UNL1        0.0268
     68 H           4.0567    0.7375   11.8200 H       1  UNL1        0.0268
     69 H           2.8822   -1.4370   11.6187 H       1  UNL1        0.0265
     70 H           4.4142   -2.2227   11.1670 H       1  UNL1        0.0265
     71 H           5.3955   -1.5622   13.3463 H       1  UNL1        0.0268
     72 H           3.8635   -0.7766   13.7980 H       1  UNL1        0.0268
     73 H           2.7027   -2.9868   13.5156 H       1  UNL1        0.0295
     74 H           4.3239   -3.9837   11.9261 H       1  UNL1        0.0232
     75 H           5.5622   -4.0085   13.2046 H       1  UNL1        0.0232
     76 H           4.1077   -5.0236   13.3545 H       1  UNL1        0.0232
     77 H           3.4952   -2.2331   15.7410 H       1  UNL1        0.0232
     78 H           3.6238   -4.0013   15.5823 H       1  UNL1        0.0232
     79 H           5.0782   -2.9862   15.4324 H       1  UNL1        0.0232
@<TRIPOS>BOND
     1     1     2    1
     2     1    36    1
     3     1    37    1
     4     1    38    1
     5     2    12    1
     6     2     3    2
     7     3     4    1
     8     3    14    1
     9     4     5    2
    10     4     6    1
    11     6    11   ar
    12     6     7   ar
    13     7     8   ar
    14     7    39    1
    15     8     9   ar
    16     8    40    1
    17     9    10   ar
    18     9    41    1
    19    10    11   ar
    20    10    42    1
    21    11    12    1
    22    12    13    2
    23    14    15    1
    24    14    43    1
    25    14    44    1
    26    15    16    2
    27    15    45    1
    28    16    17    1
    29    16    18    1
    30    17    46    1
    31    17    47    1
    32    17    48    1
    33    18    19    1
    34    18    49    1
    35    18    50    1
    36    19    20    1
    37    19    51    1
    38    19    52    1
    39    20    21    1
    40    20    53    1
    41    20    54    1
    42    21    22    1
    43    21    23    1
    44    21    24    1
    45    23    55    1
    46    23    56    1
    47    23    57    1
    48    24    25    1
    49    24    58    1
    50    24    59    1
    51    25    26    1
    52    25    60    1
    53    25    61    1
    54    26    27    1
    55    26    62    1
    56    26    63    1
    57    27    28    1
    58    27    29    1
    59    27    30    1
    60    29    64    1
    61    29    65    1
    62    29    66    1
    63    30    31    1
    64    30    67    1
    65    30    68    1
    66    31    32    1
    67    31    69    1
    68    31    70    1
    69    32    33    1
    70    32    71    1
    71    32    72    1
    72    33    34    1
    73    33    35    1
    74    33    73    1
    75    34    74    1
    76    34    75    1
    77    34    76    1
    78    35    77    1
    79    35    78    1
    80    35    79    1
