@<TRIPOS>MOLECULE
ZINC03830195
 43 44 0 0 0
SMALL
GASTEIGER

@<TRIPOS>ATOM
      1 C           0.0156   -3.0908    0.2427 C.3     1  UNL1       -0.0552
      2 C           1.0834   -2.3990   -0.6071 C.3     1  UNL1        0.0421
      3 C           1.4203   -1.0617    0.0005 C.2     1  UNL1        0.3077
      4 O           0.8635   -0.6991    1.0096 O.2     1  UNL1       -0.2508
      5 O           2.3389   -0.2733   -0.5795 O.3     1  UNL1       -0.4526
      6 C           2.5376    1.0434   -0.0006 C.3     1  UNL1        0.1505
      7 C           3.1185    0.9018    1.4090 C.3     1  UNL1        0.0322
      8 C           4.4864    0.2207    1.3256 C.3     1  UNL1       -0.0281
      9 C           4.8704    1.1336   -0.8860 C.3     1  UNL1       -0.0255
     10 C           3.5139    1.8420   -0.8687 C.3     1  UNL1        0.0406
     11 H           3.1257    1.9096   -1.8850 H       1  UNL1        0.0392
     12 C           3.6787    3.2488   -0.2902 C.3     1  UNL1       -0.0536
     13 C           6.7461    0.4733    0.4946 C.3     1  UNL1       -0.0431
     14 C           1.2176    1.7672    0.0690 C.ar    1  UNL1       -0.0036
     15 C           0.2448    1.5238   -0.8824 C.ar    1  UNL1       -0.0548
     16 C          -0.9640    2.1917   -0.8216 C.ar    1  UNL1       -0.0614
     17 C          -1.2036    3.0958    0.1963 C.ar    1  UNL1       -0.0617
     18 C          -0.2311    3.3386    1.1482 C.ar    1  UNL1       -0.0614
     19 C           0.9795    2.6743    1.0846 C.ar    1  UNL1       -0.0548
     20 H          -0.2281   -4.0581   -0.1968 H       1  UNL1        0.0235
     21 H           0.3944   -3.2364    1.2543 H       1  UNL1        0.0235
     22 H          -0.8803   -2.4708    0.2759 H       1  UNL1        0.0235
     23 H           0.7045   -2.2534   -1.6187 H       1  UNL1        0.0375
     24 H           1.9792   -3.0190   -0.6404 H       1  UNL1        0.0375
     25 H           3.2303    1.8890    1.8574 H       1  UNL1        0.0359
     26 H           2.4478    0.2977    2.0200 H       1  UNL1        0.0359
     27 H           4.3720   -0.7719    0.8899 H       1  UNL1        0.0816
     28 H           4.9091    0.1314    2.3264 H       1  UNL1        0.0816
     29 H           4.7541    0.1368   -1.3114 H       1  UNL1        0.0818
     30 H           5.5719    1.7072   -1.4917 H       1  UNL1        0.0818
     31 H           4.1264    3.1836    0.7015 H       1  UNL1        0.0236
     32 H           4.3246    3.8365   -0.9425 H       1  UNL1        0.0236
     33 H           2.7026    3.7283   -0.2174 H       1  UNL1        0.0236
     34 H           7.4062    1.1280   -0.0743 H       1  UNL1        0.0777
     35 H           7.1022    0.4025    1.5224 H       1  UNL1        0.0777
     36 H           6.7404   -0.5186    0.0428 H       1  UNL1        0.0777
     37 H           0.4308    0.8151   -1.6758 H       1  UNL1        0.0622
     38 H          -1.7224    2.0047   -1.5674 H       1  UNL1        0.0618
     39 H          -2.1493    3.6151    0.2458 H       1  UNL1        0.0618
     40 H          -0.4170    4.0476    1.9415 H       1  UNL1        0.0618
     41 H           1.7394    2.8642    1.8281 H       1  UNL1        0.0622
     42 N           5.3862    1.0509    0.4971 N.4     1  UNL1        0.2335
     43 H           5.4265    1.9968    0.8946 H       1  UNL1        0.2031
@<TRIPOS>UNITY_ATOM_ATTR
42 1
charge 1
@<TRIPOS>BOND
     1     1     2    1
     2     1    20    1
     3     1    21    1
     4     1    22    1
     5     2     3    1
     6     2    23    1
     7     2    24    1
     8     3     4    2
     9     3     5    1
    10     5     6    1
    11     6    10    1
    12     6     7    1
    13     6    14    1
    14     7     8    1
    15     7    25    1
    16     7    26    1
    17     8    27    1
    18     8    28    1
    19     8    42    1
    20     9    10    1
    21     9    29    1
    22     9    30    1
    23     9    42    1
    24    10    11    1
    25    10    12    1
    26    12    31    1
    27    12    32    1
    28    12    33    1
    29    13    34    1
    30    13    35    1
    31    13    36    1
    32    13    42    1
    33    14    19   ar
    34    14    15   ar
    35    15    16   ar
    36    15    37    1
    37    16    17   ar
    38    16    38    1
    39    17    18   ar
    40    17    39    1
    41    18    19   ar
    42    18    40    1
    43    19    41    1
    44    42    43    1
