@<TRIPOS>MOLECULE
ZINC05920288
 49 52 0 0 0
SMALL
GASTEIGER

@<TRIPOS>ATOM
      1 C          -2.9378    1.8165   -2.3838 C.3     1  UNL1       -0.0558
      2 C          -2.2048    1.1335   -1.2275 C.3     1  UNL1        0.0111
      3 C          -0.7677    1.6001   -1.2199 C.3     1  UNL1       -0.0433
      4 C          -0.0127    1.0858    0.0080 C.3     1  UNL1       -0.0453
      5 C          -0.7440    1.5868    1.2555 C.3     1  UNL1       -0.0125
      6 H          -0.8387    2.6715    1.2044 H       1  UNL1        0.0352
      7 C           0.0163    1.2335    2.5012 C.ar    1  UNL1       -0.0406
      8 C           1.3993    1.3572    2.4809 C.ar    1  UNL1       -0.0546
      9 C           2.1462    1.0706    3.6035 C.ar    1  UNL1       -0.0197
     10 C           1.5105    0.6536    4.7643 C.ar    1  UNL1        0.1204
     11 C           0.1326    0.5241    4.7820 C.ar    1  UNL1       -0.0165
     12 C          -0.6184    0.8090    3.6494 C.ar    1  UNL1       -0.0405
     13 C          -2.1118    0.6355    3.7380 C.3     1  UNL1       -0.0270
     14 C          -2.8196    1.3560    2.5917 C.3     1  UNL1       -0.0454
     15 C          -2.1359    0.9625    1.2811 C.3     1  UNL1       -0.0305
     16 H          -2.0345   -0.1220    1.2392 H       1  UNL1        0.0310
     17 C          -2.9559    1.4400    0.0826 C.3     1  UNL1       -0.0286
     18 H          -3.2438    2.4884    0.1601 H       1  UNL1        0.0310
     19 C          -4.1853    0.4916   -0.0288 C.3     1  UNL1       -0.0458
     20 C          -3.6047   -0.7994   -0.6458 C.3     1  UNL1       -0.0118
     21 C          -2.3312   -0.3846   -1.4100 C.3     1  UNL1        0.1317
     22 C          -2.4670   -0.7140   -2.8382 C.1     1  UNL1       -0.0704
     23 C          -2.5752   -0.9768   -3.9773 C.1     1  UNL1       -0.1163
     24 O          -1.1895   -1.0435   -0.8584 O.3     1  UNL1       -0.3760
     25 O           2.2371    0.3741    5.8782 O.3     1  UNL1       -0.4951
     26 C           3.6544    0.5306    5.7845 C.3     1  UNL1        0.0788
     27 H          -2.4503    1.5608   -3.3246 H       1  UNL1        0.0236
     28 H          -3.9737    1.4782   -2.4076 H       1  UNL1        0.0236
     29 H          -2.9116    2.8970   -2.2429 H       1  UNL1        0.0236
     30 H          -0.7477    2.6899   -1.2188 H       1  UNL1        0.0272
     31 H          -0.2721    1.2365   -2.1200 H       1  UNL1        0.0272
     32 H           0.0021   -0.0041    0.0020 H       1  UNL1        0.0271
     33 H           1.0079    1.4684    0.0003 H       1  UNL1        0.0271
     34 H           1.8943    1.6807    1.5772 H       1  UNL1        0.0622
     35 H           3.2213    1.1706    3.5798 H       1  UNL1        0.0654
     36 H          -0.3628    0.1982    5.6846 H       1  UNL1        0.0657
     37 H          -2.4632    1.0416    4.6866 H       1  UNL1        0.0313
     38 H          -2.3506   -0.4271    3.6939 H       1  UNL1        0.0313
     39 H          -2.7467    2.4342    2.7347 H       1  UNL1        0.0271
     40 H          -3.8680    1.0590    2.5627 H       1  UNL1        0.0271
     41 H          -4.6030    0.2897    0.9575 H       1  UNL1        0.0269
     42 H          -4.9420    0.9220   -0.6848 H       1  UNL1        0.0269
     43 H          -3.3533   -1.5098    0.1417 H       1  UNL1        0.0303
     44 H          -4.3255   -1.2422   -1.3332 H       1  UNL1        0.0303
     45 H          -2.6720   -1.2118   -4.9961 H       1  UNL1        0.1229
     46 H          -1.2118   -2.0065   -0.9436 H       1  UNL1        0.2114
     47 H           4.0423   -0.1294    5.0086 H       1  UNL1        0.0660
     48 H           3.8899    1.5647    5.5331 H       1  UNL1        0.0660
     49 H           4.1121    0.2758    6.7404 H       1  UNL1        0.0660
@<TRIPOS>BOND
     1     1     2    1
     2     1    27    1
     3     1    28    1
     4     1    29    1
     5     2    17    1
     6     2    21    1
     7     2     3    1
     8     3     4    1
     9     3    30    1
    10     3    31    1
    11     4     5    1
    12     4    32    1
    13     4    33    1
    14     5     6    1
    15     5    15    1
    16     5     7    1
    17     7    12   ar
    18     7     8   ar
    19     8     9   ar
    20     8    34    1
    21     9    10   ar
    22     9    35    1
    23    10    11   ar
    24    10    25    1
    25    11    12   ar
    26    11    36    1
    27    12    13    1
    28    13    14    1
    29    13    37    1
    30    13    38    1
    31    14    15    1
    32    14    39    1
    33    14    40    1
    34    15    16    1
    35    15    17    1
    36    17    18    1
    37    17    19    1
    38    19    20    1
    39    19    41    1
    40    19    42    1
    41    20    21    1
    42    20    43    1
    43    20    44    1
    44    21    22    1
    45    21    24    1
    46    22    23    3
    47    23    45    1
    48    24    46    1
    49    25    26    1
    50    26    47    1
    51    26    48    1
    52    26    49    1
