@<TRIPOS>MOLECULE
ZINC11592645
 52 56 0 0 0
SMALL
GASTEIGER

@<TRIPOS>ATOM
      1 C          -2.4578    0.4652   -0.4878 C.3     1  UNL1       -0.0558
      2 C          -1.4567   -0.5180    0.1220 C.3     1  UNL1        0.0111
      3 C          -1.3964   -1.8180   -0.6478 C.3     1  UNL1       -0.0435
      4 C          -2.6723   -2.6238   -0.4234 C.3     1  UNL1       -0.0485
      5 C          -2.7764   -2.9813    1.0638 C.3     1  UNL1       -0.0285
      6 H          -1.8968   -3.5384    1.3865 H       1  UNL1        0.0312
      7 C          -2.8923   -1.6880    1.8691 C.3     1  UNL1       -0.0337
      8 H          -3.8093   -1.1854    1.5613 H       1  UNL1        0.0307
      9 C          -1.7272   -0.7616    1.6180 C.3     1  UNL1       -0.0289
     10 H          -1.9192    0.1942    2.1055 H       1  UNL1        0.0310
     11 C          -0.3942   -1.3318    2.1368 C.3     1  UNL1       -0.0458
     12 C           0.6703   -0.4972    1.3878 C.3     1  UNL1       -0.0118
     13 C          -0.0107    0.0458    0.1176 C.3     1  UNL1        0.1317
     14 C           0.7092   -0.4179   -1.0797 C.1     1  UNL1       -0.0704
     15 C           1.2833   -0.7878   -2.0346 C.1     1  UNL1       -0.1163
     16 O          -0.0407    1.4742    0.1492 O.3     1  UNL1       -0.3760
     17 C          -2.9910   -2.0129    3.3621 C.3     1  UNL1       -0.0459
     18 C          -4.2740   -2.8036    3.6322 C.3     1  UNL1       -0.0305
     19 C          -4.2687   -4.0336    2.7367 C.2     1  UNL1       -0.0595
     20 C          -4.4753   -5.2127    3.3204 C.2     1  UNL1       -0.0166
     21 C          -4.4695   -6.4120    2.4765 C.ar    1  UNL1        0.1633
     22 C          -4.2498   -6.3259    1.1229 C.ar    1  UNL1        0.0195
     23 C          -4.3157   -7.6499    0.6841 C.ar    1  UNL1        0.0738
     24 N          -4.5559   -8.3775    1.7450 N.ar    1  UNL1       -0.0858
     25 O          -4.6452   -7.7015    2.7520 O.2     1  UNL1       -0.3550
     26 C          -4.0065   -5.0515    0.3913 C.3     1  UNL1       -0.0132
     27 C          -4.0344   -3.8307    1.2775 C.3     1  UNL1       -0.0035
     28 C          -5.1916   -2.9647    0.7758 C.3     1  UNL1       -0.0553
     29 H          -2.1928    0.6553   -1.5278 H       1  UNL1        0.0236
     30 H          -3.4601    0.0394   -0.4402 H       1  UNL1        0.0236
     31 H          -2.4338    1.4012    0.0703 H       1  UNL1        0.0236
     32 H          -0.5393   -2.3999   -0.3088 H       1  UNL1        0.0272
     33 H          -1.2882   -1.6049   -1.7113 H       1  UNL1        0.0272
     34 H          -2.6366   -3.5373   -1.0169 H       1  UNL1        0.0268
     35 H          -3.5380   -2.0305   -0.7178 H       1  UNL1        0.0268
     36 H          -0.3032   -2.3877    1.8821 H       1  UNL1        0.0269
     37 H          -0.3078   -1.1868    3.2137 H       1  UNL1        0.0269
     38 H           1.5169   -1.1282    1.1170 H       1  UNL1        0.0303
     39 H           1.0055    0.3294    2.0143 H       1  UNL1        0.0303
     40 H           1.7968   -1.1186   -2.8886 H       1  UNL1        0.1229
     41 H           0.8342    1.8858    0.1609 H       1  UNL1        0.2114
     42 H          -2.1282   -2.6078    3.6618 H       1  UNL1        0.0271
     43 H          -3.0093   -1.0857    3.9348 H       1  UNL1        0.0271
     44 H          -4.3044   -3.1097    4.6779 H       1  UNL1        0.0310
     45 H          -5.1423   -2.1855    3.4036 H       1  UNL1        0.0310
     46 H          -4.6423   -5.2836    4.3851 H       1  UNL1        0.0655
     47 H          -4.1929   -8.0032   -0.3291 H       1  UNL1        0.0867
     48 H          -4.7696   -4.9406   -0.3790 H       1  UNL1        0.0323
     49 H          -3.0309   -5.1096   -0.0914 H       1  UNL1        0.0323
     50 H          -5.2321   -2.0417    1.3542 H       1  UNL1        0.0238
     51 H          -5.0380   -2.7273   -0.2769 H       1  UNL1        0.0238
     52 H          -6.1293   -3.5081    0.8926 H       1  UNL1        0.0238
@<TRIPOS>BOND
     1     1     2    1
     2     1    29    1
     3     1    30    1
     4     1    31    1
     5     2     9    1
     6     2    13    1
     7     2     3    1
     8     3     4    1
     9     3    32    1
    10     3    33    1
    11     4     5    1
    12     4    34    1
    13     4    35    1
    14     5     6    1
    15     5    27    1
    16     5     7    1
    17     7     8    1
    18     7     9    1
    19     7    17    1
    20     9    10    1
    21     9    11    1
    22    11    12    1
    23    11    36    1
    24    11    37    1
    25    12    13    1
    26    12    38    1
    27    12    39    1
    28    13    14    1
    29    13    16    1
    30    14    15    3
    31    15    40    1
    32    16    41    1
    33    17    18    1
    34    17    42    1
    35    17    43    1
    36    18    19    1
    37    18    44    1
    38    18    45    1
    39    19    27    1
    40    19    20    2
    41    20    21    1
    42    20    46    1
    43    21    25   ar
    44    21    22   ar
    45    22    23   ar
    46    22    26    1
    47    23    24   ar
    48    23    47    1
    49    24    25   ar
    50    26    27    1
    51    26    48    1
    52    26    49    1
    53    27    28    1
    54    28    50    1
    55    28    51    1
    56    28    52    1
