@<TRIPOS>MOLECULE
ZINC03830671
 71 75 0 0 0
SMALL
GASTEIGER

@<TRIPOS>ATOM
      1 C          -4.7945    4.8418    4.0331 C.3     1  UNL1       -0.0583
      2 C          -3.7691    5.7032    3.2996 C.3     1  UNL1        0.0042
      3 H          -3.6305    5.3340    2.2806 H       1  UNL1        0.0341
      4 C          -4.2349    7.1869    3.2564 C.3     1  UNL1       -0.0426
      5 C          -2.9006    7.9264    3.4214 C.3     1  UNL1       -0.0253
      6 H          -2.3173    7.7358    2.4846 H       1  UNL1        0.0311
      7 C          -2.9372    9.4231    3.6061 C.3     1  UNL1        0.0003
      8 H          -3.9860    9.7372    3.7400 H       1  UNL1        0.0336
      9 C          -2.4472   10.0045    2.2686 C.3     1  UNL1       -0.0432
     10 C          -2.3802   11.5280    2.2793 C.3     1  UNL1       -0.0301
     11 C          -1.4686   11.8955    3.4368 C.2     1  UNL1       -0.0532
     12 C          -0.3858   12.6266    3.2182 C.2     1  UNL1       -0.0148
     13 C           0.4885   13.0014    4.3447 C.2     1  UNL1        0.1787
     14 O           1.4991   13.6560    4.1573 O.2     1  UNL1       -0.2879
     15 C           0.1158   12.5695    5.7035 C.2     1  UNL1       -0.0180
     16 C          -0.9737   11.8357    5.8885 C.2     1  UNL1       -0.0674
     17 C          -1.8716   11.3961    4.7834 C.3     1  UNL1        0.0443
     18 C          -2.1087    9.8852    4.7896 C.3     1  UNL1        0.1526
     19 C          -0.7948    9.1520    4.9724 C.3     1  UNL1        0.0910
     20 H          -0.4247    9.3534    5.9956 H       1  UNL1        0.0626
     21 C          -0.8432    7.6322    4.7779 C.3     1  UNL1       -0.0141
     22 C          -2.2443    7.1392    4.5630 C.3     1  UNL1        0.0208
     23 C          -2.4096    5.6930    4.0470 C.3     1  UNL1        0.1826
     24 C          -1.3051    5.2962    3.1151 C.2     1  UNL1        0.2144
     25 O          -0.7198    6.1393    2.4788 O.2     1  UNL1       -0.2895
     26 C          -0.9247    3.8450    2.9720 C.3     1  UNL1        0.1542
     27 O           0.0700    3.7065    1.9234 O.3     1  UNL1       -0.4570
     28 C           0.5180    2.4671    1.6683 C.2     1  UNL1        0.3043
     29 O           0.0930    1.5291    2.3002 O.2     1  UNL1       -0.2512
     30 C           1.5510    2.2456    0.5936 C.3     1  UNL1        0.0332
     31 O          -2.4721    4.7858    5.1792 O.3     1  UNL1       -0.4438
     32 C          -1.3458    4.6351    5.9061 C.2     1  UNL1        0.3758
     33 O          -0.3142    5.1701    5.5471 O.2     1  UNL1       -0.2414
     34 C          -1.3652    3.8271    7.1276 C.ar    1  UNL1        0.2112
     35 C          -0.3002    3.5891    7.9500 C.ar    1  UNL1       -0.0093
     36 C          -0.7696    2.7755    8.9923 C.ar    1  UNL1       -0.0231
     37 C          -2.0813    2.5473    8.7593 C.ar    1  UNL1        0.0929
     38 O          -2.4364    3.1825    7.6352 O.2     1  UNL1       -0.4564
     39 C          -3.0395    7.1788    5.8732 C.3     1  UNL1       -0.0551
     40 O           0.1870    9.6976    4.0714 O.3     1  UNL1       -0.3886
     41 F          -2.8783    9.7216    5.9684 F       1  UNL1       -0.2377
     42 C          -3.2334   12.0263    5.1029 C.3     1  UNL1       -0.0493
     43 H          -4.8806    5.1796    5.0658 H       1  UNL1        0.0234
     44 H          -5.7626    4.9302    3.5400 H       1  UNL1        0.0234
     45 H          -4.4724    3.8006    4.0170 H       1  UNL1        0.0234
     46 H          -4.6794    7.4147    2.2846 H       1  UNL1        0.0272
     47 H          -4.9305    7.4121    4.0553 H       1  UNL1        0.0272
     48 H          -1.4581    9.5981    2.0551 H       1  UNL1        0.0272
     49 H          -3.1326    9.6801    1.4823 H       1  UNL1        0.0272
     50 H          -3.3671   11.9612    2.4069 H       1  UNL1        0.0310
     51 H          -1.9419   11.8891    1.3453 H       1  UNL1        0.0310
     52 H          -0.1463   12.9480    2.2142 H       1  UNL1        0.0656
     53 H           0.7274   12.8542    6.5497 H       1  UNL1        0.0653
     54 H          -1.2322   11.5386    6.8950 H       1  UNL1        0.0583
     55 H          -0.1953    7.3796    3.9248 H       1  UNL1        0.0298
     56 H          -0.4095    7.1393    5.6631 H       1  UNL1        0.0298
     57 H          -1.7355    3.3097    2.7351 H       1  UNL1        0.0780
     58 H          -0.5126    3.4829    3.9139 H       1  UNL1        0.0780
     59 H           1.7894    1.1838    0.5321 H       1  UNL1        0.0342
     60 H           2.4533    2.8071    0.8358 H       1  UNL1        0.0342
     61 H           1.1575    2.5858   -0.3643 H       1  UNL1        0.0342
     62 H           0.7070    3.9577    7.8235 H       1  UNL1        0.0657
     63 H          -0.1906    2.3988    9.8225 H       1  UNL1        0.0649
     64 H          -2.7355    1.9511    9.3782 H       1  UNL1        0.1029
     65 H          -2.8622    6.2610    6.4338 H       1  UNL1        0.0237
     66 H          -2.7191    8.0348    6.4670 H       1  UNL1        0.0237
     67 H          -4.1027    7.2688    5.6503 H       1  UNL1        0.0237
     68 H           1.0549    9.2756    4.1331 H       1  UNL1        0.2099
     69 H          -3.5736   11.6808    6.0791 H       1  UNL1        0.0242
     70 H          -3.1375   13.1120    5.1149 H       1  UNL1        0.0242
     71 H          -3.9567   11.7339    4.3417 H       1  UNL1        0.0242
@<TRIPOS>BOND
     1     1     2    1
     2     1    43    1
     3     1    44    1
     4     1    45    1
     5     2     3    1
     6     2    23    1
     7     2     4    1
     8     4     5    1
     9     4    46    1
    10     4    47    1
    11     5     6    1
    12     5    22    1
    13     5     7    1
    14     7     8    1
    15     7    18    1
    16     7     9    1
    17     9    10    1
    18     9    48    1
    19     9    49    1
    20    10    11    1
    21    10    50    1
    22    10    51    1
    23    11    17    1
    24    11    12    2
    25    12    13    1
    26    12    52    1
    27    13    14    2
    28    13    15    1
    29    15    16    2
    30    15    53    1
    31    16    17    1
    32    16    54    1
    33    17    18    1
    34    17    42    1
    35    18    19    1
    36    18    41    1
    37    19    20    1
    38    19    21    1
    39    19    40    1
    40    21    22    1
    41    21    55    1
    42    21    56    1
    43    22    23    1
    44    22    39    1
    45    23    24    1
    46    23    31    1
    47    24    25    2
    48    24    26    1
    49    26    27    1
    50    26    57    1
    51    26    58    1
    52    27    28    1
    53    28    29    2
    54    28    30    1
    55    30    59    1
    56    30    60    1
    57    30    61    1
    58    31    32    1
    59    32    33    2
    60    32    34    1
    61    34    38   ar
    62    34    35   ar
    63    35    36   ar
    64    35    62    1
    65    36    37   ar
    66    36    63    1
    67    37    38   ar
    68    37    64    1
    69    39    65    1
    70    39    66    1
    71    39    67    1
    72    40    68    1
    73    42    69    1
    74    42    70    1
    75    42    71    1
