@<TRIPOS>MOLECULE
ZINC00049142
 31 32 0 0 0
SMALL
GASTEIGER

@<TRIPOS>ATOM
      1 C          -1.1605   -4.7100    0.3188 C.3     1  UNL1        0.0789
      2 O           0.0571   -4.0428   -0.0193 O.3     1  UNL1       -0.4921
      3 C           0.0386   -2.6826   -0.0118 C.ar    1  UNL1        0.1562
      4 C           1.1795   -1.9541   -0.3284 C.ar    1  UNL1        0.0743
      5 N           1.1249   -0.6323   -0.3114 N.ar    1  UNL1       -0.2180
      6 C           0.0021   -0.0041    0.0020 C.ar    1  UNL1        0.2349
      7 N          -1.1018   -0.6660    0.3136 N.ar    1  UNL1       -0.2180
      8 C          -1.1216   -1.9888    0.3121 C.ar    1  UNL1        0.0743
      9 N          -0.0167    1.3823    0.0096 N.pl3   1  UNL1       -0.1836
     10 S          -1.4619    2.1907    0.0209 S.O2    1  UNL1        0.0746
     11 O          -1.1516    3.5770    0.0540 O.2     1  UNL1       -0.1499
     12 O          -2.2586    1.6127   -1.0040 O.2     1  UNL1       -0.1499
     13 C          -2.2567    1.8159    1.5482 C.ar    1  UNL1        0.1087
     14 C          -3.1049    0.7272    1.6355 C.ar    1  UNL1       -0.0333
     15 C          -3.7250    0.4273    2.8325 C.ar    1  UNL1       -0.0392
     16 C          -3.5047    1.2273    3.9466 C.ar    1  UNL1        0.0247
     17 C          -2.6564    2.3234    3.8539 C.ar    1  UNL1       -0.0392
     18 C          -2.0351    2.6144    2.6553 C.ar    1  UNL1       -0.0333
     19 N          -4.1343    0.9299    5.1574 N.pl3   1  UNL1       -0.3580
     20 H          -1.4622   -4.4267    1.3272 H       1  UNL1        0.0660
     21 H          -1.9399   -4.4238   -0.3875 H       1  UNL1        0.0660
     22 H          -1.0083   -5.7884    0.2745 H       1  UNL1        0.0660
     23 H           2.0984   -2.4604   -0.5846 H       1  UNL1        0.0869
     24 H          -2.0262   -2.5227    0.5632 H       1  UNL1        0.0869
     25 H           0.8166    1.8786    0.0044 H       1  UNL1        0.1767
     26 H          -3.2795    0.1085    0.7677 H       1  UNL1        0.0638
     27 H          -4.3839   -0.4256    2.9012 H       1  UNL1        0.0636
     28 H          -2.4832    2.9476    4.7180 H       1  UNL1        0.0636
     29 H          -1.3752    3.4662    2.5826 H       1  UNL1        0.0638
     30 H          -3.9794    1.4891    5.9347 H       1  UNL1        0.1423
     31 H          -4.7264    0.1643    5.2209 H       1  UNL1        0.1423
@<TRIPOS>BOND
     1     1     2    1
     2     1    20    1
     3     1    21    1
     4     1    22    1
     5     2     3    1
     6     3     8   ar
     7     3     4   ar
     8     4     5   ar
     9     4    23    1
    10     5     6   ar
    11     6     7   ar
    12     6     9    1
    13     7     8   ar
    14     8    24    1
    15     9    10    1
    16     9    25    1
    17    10    11    2
    18    10    12    2
    19    10    13    1
    20    13    18   ar
    21    13    14   ar
    22    14    15   ar
    23    14    26    1
    24    15    16   ar
    25    15    27    1
    26    16    17   ar
    27    16    19    1
    28    17    18   ar
    29    17    28    1
    30    18    29    1
    31    19    30    1
    32    19    31    1
