@<TRIPOS>MOLECULE
ZINC03830233
 20 20 0 0 0
SMALL
GASTEIGER

@<TRIPOS>ATOM
      1 C           1.4167    2.0553   -0.0004 C.3     1  UNL1        0.0741
      2 C          -0.0187    1.5258    0.0104 C.3     1  UNL1        0.1220
      3 H          -0.5459    1.8868   -0.8726 H       1  UNL1        0.0658
      4 C           0.0021   -0.0041    0.0020 C.3     1  UNL1        0.1914
      5 H           0.4074   -0.3272   -0.8532 H       1  UNL1        0.0843
      6 C          -1.4010   -0.5429    0.1566 C.2     1  UNL1        0.2153
      7 C          -1.4082   -1.2732    1.2903 C.3     1  UNL1        0.2137
      8 C          -0.0762   -1.2380    1.8831 C.2     1  UNL1        0.3444
      9 O           0.2441   -1.8003    2.9134 O.2     1  UNL1       -0.2474
     10 O           0.7469   -0.4917    1.1225 O.3     1  UNL1       -0.4487
     11 O          -2.4847   -1.9363    1.7988 O.3     1  UNL1       -0.3740
     12 O          -2.4430   -0.3331   -0.6768 O.2     1  UNL1       -0.2900
     13 O          -0.6875    1.9866    1.1861 O.3     1  UNL1       -0.3854
     14 O           1.3980    3.4800   -0.1100 O.3     1  UNL1       -0.3923
     15 H           1.9168    1.7687    0.9247 H       1  UNL1        0.0584
     16 H           1.9535    1.6326   -0.8497 H       1  UNL1        0.0584
     17 H          -3.2741   -1.7985    1.2006 H       1  UNL1        0.2110
     18 H          -1.9522   -0.5141    1.6477 H       1  UNL1        0.0793
     19 H          -0.2723    1.7023    2.0119 H       1  UNL1        0.2101
     20 H           2.2760    3.8851   -0.1229 H       1  UNL1        0.2095
@<TRIPOS>BOND
     1     1     2    1
     2     1    14    1
     3     1    15    1
     4     1    16    1
     5     2     3    1
     6     2     4    1
     7     2    13    1
     8     4    10    1
     9     4     6    1
    10     4     5    1
    11     6     7    1
    12     6    12    2
    13     7     8    1
    14     7    11    1
    15     7    18    1
    16     8     9    2
    17     8    10    1
    18    11    17    1
    19    13    19    1
    20    14    20    1
