@<TRIPOS>MOLECULE
ZINC00057400
 48 50 0 0 0
SMALL
GASTEIGER

@<TRIPOS>ATOM
      1 C           5.1119    3.1092    2.3846 C.3     1  UNL1       -0.0561
      2 C           3.6697    3.4911    2.0453 C.3     1  UNL1        0.0124
      3 H           2.9894    2.7500    2.4647 H       1  UNL1        0.0365
      4 C           3.4986    3.5382    0.5256 C.3     1  UNL1        0.0247
      5 N           3.6719    2.1926   -0.0272 N.pl3   1  UNL1       -0.2978
      6 C           2.5651    1.3479   -0.0232 C.ar    1  UNL1        0.0479
      7 C           1.2927    1.9091    0.0129 C.ar    1  UNL1       -0.0393
      8 C           0.1728    1.0996    0.0260 C.ar    1  UNL1       -0.0599
      9 C           0.3079   -0.2756    0.0022 C.ar    1  UNL1       -0.0606
     10 C           1.5677   -0.8445   -0.0367 C.ar    1  UNL1       -0.0462
     11 C           2.6968   -0.0378   -0.0500 C.ar    1  UNL1        0.0341
     12 S           4.2933   -0.7798   -0.1044 S.3     1  UNL1       -0.0857
     13 C           5.3555    0.5324   -0.6071 C.ar    1  UNL1        0.0343
     14 C           4.9309    1.8554   -0.5169 C.ar    1  UNL1        0.0514
     15 C           5.7859    2.8740   -0.9237 C.ar    1  UNL1        0.0025
     16 C           7.0486    2.5746   -1.4109 C.ar    1  UNL1        0.1219
     17 C           7.4665    1.2558   -1.4954 C.ar    1  UNL1       -0.0188
     18 C           6.6201    0.2379   -1.0946 C.ar    1  UNL1       -0.0427
     19 O           7.8788    3.5765   -1.8062 O.3     1  UNL1       -0.4950
     20 C           9.1656    3.1966   -2.2980 C.3     1  UNL1        0.0788
     21 C           3.3536    4.8662    2.6370 C.3     1  UNL1       -0.0283
     22 C           3.3382    6.1313    4.7014 C.3     1  UNL1       -0.0433
     23 C           2.3275    3.9325    4.6214 C.3     1  UNL1       -0.0433
     24 H           5.2127    2.9928    3.4637 H       1  UNL1        0.0235
     25 H           5.3644    2.1699    1.8926 H       1  UNL1        0.0235
     26 H           5.7861    3.8930    2.0392 H       1  UNL1        0.0235
     27 H           4.2454    4.2062    0.0965 H       1  UNL1        0.0472
     28 H           2.5011    3.9048    0.2835 H       1  UNL1        0.0472
     29 H           1.1795    2.9830    0.0306 H       1  UNL1        0.0636
     30 H          -0.8116    1.5433    0.0504 H       1  UNL1        0.0618
     31 H          -0.5694   -0.9053    0.0137 H       1  UNL1        0.0618
     32 H           1.6732   -1.9191   -0.0571 H       1  UNL1        0.0629
     33 H           5.4644    3.9031   -0.8601 H       1  UNL1        0.0673
     34 H           8.4512    1.0234   -1.8735 H       1  UNL1        0.0654
     35 H           6.9451   -0.7898   -1.1613 H       1  UNL1        0.0630
     36 H           9.7254    4.0890   -2.5781 H       1  UNL1        0.0660
     37 H           9.7069    2.6572   -1.5208 H       1  UNL1        0.0660
     38 H           9.0460    2.5540   -3.1703 H       1  UNL1        0.0660
     39 H           4.0889    5.5904    2.2863 H       1  UNL1        0.0817
     40 H           2.3579    5.1774    2.3211 H       1  UNL1        0.0817
     41 H           2.4084    6.6177    4.4063 H       1  UNL1        0.0777
     42 H           3.3751    6.0466    5.7875 H       1  UNL1        0.0777
     43 H           4.1845    6.7241    4.3543 H       1  UNL1        0.0777
     44 H           2.4390    2.9268    4.2161 H       1  UNL1        0.0777
     45 H           2.3858    3.8944    5.7092 H       1  UNL1        0.0777
     46 H           1.3612    4.3392    4.3233 H       1  UNL1        0.0777
     47 N           3.4261    4.7793    4.1107 N.4     1  UNL1        0.2311
     48 H           4.3236    4.3571    4.3761 H       1  UNL1        0.2028
@<TRIPOS>UNITY_ATOM_ATTR
47 1
charge 1
@<TRIPOS>BOND
     1     1     2    1
     2     1    24    1
     3     1    25    1
     4     1    26    1
     5     2     3    1
     6     2     4    1
     7     2    21    1
     8     4     5    1
     9     4    27    1
    10     4    28    1
    11     5    14    1
    12     5     6    1
    13     6    11   ar
    14     6     7   ar
    15     7     8   ar
    16     7    29    1
    17     8     9   ar
    18     8    30    1
    19     9    10   ar
    20     9    31    1
    21    10    11   ar
    22    10    32    1
    23    11    12    1
    24    12    13    1
    25    13    18   ar
    26    13    14   ar
    27    14    15   ar
    28    15    16   ar
    29    15    33    1
    30    16    17   ar
    31    16    19    1
    32    17    18   ar
    33    17    34    1
    34    18    35    1
    35    19    20    1
    36    20    36    1
    37    20    37    1
    38    20    38    1
    39    21    39    1
    40    21    40    1
    41    21    47    1
    42    22    41    1
    43    22    42    1
    44    22    43    1
    45    22    47    1
    46    23    44    1
    47    23    45    1
    48    23    46    1
    49    23    47    1
    50    47    48    1
