@<TRIPOS>MOLECULE
ZINC00002276
 41 41 0 0 0
SMALL
GASTEIGER

@<TRIPOS>ATOM
      1 C           2.5424   -2.8010   -0.0368 C.3     1  UNL1       -0.0396
      2 C           1.2281   -2.0638   -0.0208 C.ar    1  UNL1       -0.0469
      3 C           0.0398   -2.7709   -0.0133 C.ar    1  UNL1       -0.0572
      4 C          -1.1677   -2.0980    0.0014 C.ar    1  UNL1       -0.0396
      5 C          -1.1897   -0.7157    0.0153 C.ar    1  UNL1        0.0825
      6 C           0.0021   -0.0041    0.0020 C.ar    1  UNL1        0.1391
      7 C           1.2118   -0.6824   -0.0132 C.ar    1  UNL1       -0.0156
      8 O          -0.0164    1.3550    0.0095 O.3     1  UNL1       -0.4877
      9 C           1.2479    2.0211    0.0010 C.3     1  UNL1        0.1205
     10 C           1.0269    3.5350    0.0112 C.3     1  UNL1        0.1285
     11 H           0.3992    3.8048    0.8605 H       1  UNL1        0.0681
     12 C           2.3763    4.2466    0.1279 C.3     1  UNL1       -0.0033
     13 C           3.4340    6.4108    0.3728 C.3     1  UNL1       -0.0203
     14 C           4.2779    6.1530   -0.8771 C.3     1  UNL1       -0.0193
     15 C           3.1657    7.9112    0.5064 C.3     1  UNL1       -0.0193
     16 C           4.1882    5.9156    1.6084 C.3     1  UNL1       -0.0193
     17 O           0.3831    3.9306   -1.2016 O.3     1  UNL1       -0.3831
     18 CL         -2.7060    0.1291    0.0421 Cl      1  UNL1       -0.0798
     19 H           2.8687   -2.9842    0.9869 H       1  UNL1        0.0278
     20 H           2.4193   -3.7521   -0.5547 H       1  UNL1        0.0278
     21 H           3.2900   -2.1997   -0.5542 H       1  UNL1        0.0278
     22 H           0.0551   -3.8508   -0.0193 H       1  UNL1        0.0621
     23 H          -2.0945   -2.6526    0.0069 H       1  UNL1        0.0633
     24 H           2.1405   -0.1311   -0.0187 H       1  UNL1        0.0657
     25 H           1.8173    1.7310    0.8840 H       1  UNL1        0.0725
     26 H           1.8003    1.7406   -0.8958 H       1  UNL1        0.0725
     27 H           2.9063    3.8788    1.0065 H       1  UNL1        0.0841
     28 H           2.9702    4.0479   -0.7642 H       1  UNL1        0.0841
     29 H           3.7406    6.5058   -1.7574 H       1  UNL1        0.0287
     30 H           5.2253    6.6854   -0.7921 H       1  UNL1        0.0287
     31 H           4.4691    5.0841   -0.9723 H       1  UNL1        0.0287
     32 H           2.5645    8.0948    1.3968 H       1  UNL1        0.0287
     33 H           4.1130    8.4436    0.5914 H       1  UNL1        0.0287
     34 H           2.6284    8.2640   -0.3739 H       1  UNL1        0.0287
     35 H           4.3794    4.8467    1.5133 H       1  UNL1        0.0287
     36 H           5.1356    6.4480    1.6935 H       1  UNL1        0.0287
     37 H           3.5870    6.0993    2.4989 H       1  UNL1        0.0287
     38 H           0.8861    3.7211   -2.0004 H       1  UNL1        0.2102
     39 N           2.1477    5.6980    0.2583 N.4     1  UNL1        0.2327
     40 H           1.5848    5.8781    1.0979 H       1  UNL1        0.2020
     41 H           1.6449    6.0374   -0.5701 H       1  UNL1        0.2020
@<TRIPOS>UNITY_ATOM_ATTR
39 1
charge 1
@<TRIPOS>BOND
     1     1     2    1
     2     1    19    1
     3     1    20    1
     4     1    21    1
     5     2     7   ar
     6     2     3   ar
     7     3     4   ar
     8     3    22    1
     9     4     5   ar
    10     4    23    1
    11     5     6   ar
    12     5    18    1
    13     6     7   ar
    14     6     8    1
    15     7    24    1
    16     8     9    1
    17     9    10    1
    18     9    25    1
    19     9    26    1
    20    10    11    1
    21    10    12    1
    22    10    17    1
    23    12    27    1
    24    12    28    1
    25    12    39    1
    26    13    14    1
    27    13    15    1
    28    13    16    1
    29    13    39    1
    30    14    29    1
    31    14    30    1
    32    14    31    1
    33    15    32    1
    34    15    33    1
    35    15    34    1
    36    16    35    1
    37    16    36    1
    38    16    37    1
    39    17    38    1
    40    39    40    1
    41    39    41    1
