@<TRIPOS>MOLECULE
ZINC03830420
 46 48 0 0 0
SMALL
GASTEIGER

@<TRIPOS>ATOM
      1 C           1.2742    7.4778   -2.3672 C.3     1  UNL1        0.0346
      2 N           0.8839    7.2902   -0.9677 N.ar    1  UNL1       -0.2233
      3 C           0.7983    6.1226   -0.2875 C.ar    1  UNL1        0.2094
      4 N           0.4082    6.4146    0.9343 N.ar    1  UNL1       -0.1015
      5 N           0.2536    7.6827    1.0661 N.ar    1  UNL1       -0.0222
      6 N           0.5186    8.2840   -0.0429 N.ar    1  UNL1       -0.0435
      7 S           1.1381    4.5142   -0.9217 S.3     1  UNL1       -0.0801
      8 C           0.8047    3.5182    0.5523 C.3     1  UNL1        0.0251
      9 C           1.0366    2.0627    0.2381 C.2     1  UNL1       -0.0264
     10 C           0.0229    1.4227   -0.3228 C.2     1  UNL1        0.0608
     11 N           0.1128    0.0513   -0.6145 N.am    1  UNL1       -0.2484
     12 C           1.3498   -0.7690   -0.6865 C.3     1  UNL1        0.1320
     13 H           1.8776   -0.7445   -1.6399 H       1  UNL1        0.0672
     14 C           0.4489   -1.9675   -0.4791 C.3     1  UNL1        0.2424
     15 C          -0.6570   -1.0071   -0.8216 C.2     1  UNL1        0.2745
     16 O          -1.8134   -1.1479   -1.1595 O.2     1  UNL1       -0.2701
     17 N           0.4108   -2.4541    0.9023 N.am    1  UNL1       -0.2773
     18 C           0.1054   -1.6085    1.9063 C.2     1  UNL1        0.2254
     19 O          -0.1380   -0.4448    1.6664 O.2     1  UNL1       -0.2748
     20 C           0.0663   -2.1090    3.3273 C.3     1  UNL1        0.0712
     21 S          -0.3714   -0.7429    4.4377 S.3     1  UNL1       -0.1365
     22 C          -0.3756   -1.5010    6.0856 C.3     1  UNL1        0.0811
     23 C          -0.7210   -0.4844    7.0926 C.1     1  UNL1        0.0732
     24 N          -0.9875    0.3002    7.8696 N.1     1  UNL1       -0.1957
     25 O           0.6319   -3.0111   -1.4380 O.3     1  UNL1       -0.3492
     26 C          -0.3076   -4.0813   -1.3188 C.3     1  UNL1        0.0396
     27 S           2.3622   -0.2903    0.7552 S.3     1  UNL1       -0.1285
     28 C           2.3827    1.5223    0.5983 C.3     1  UNL1        0.0196
     29 C          -1.2118    2.1582   -0.6505 C.2     1  UNL1        0.0860
     30 O          -2.1934    1.5556   -1.0376 O.co2   1  UNL1       -0.5433
     31 H           0.3888    7.4293   -3.0011 H       1  UNL1        0.0474
     32 H           1.7518    8.4507   -2.4840 H       1  UNL1        0.0474
     33 H           1.9726    6.6931   -2.6580 H       1  UNL1        0.0474
     34 H          -0.2303    3.6627    0.8620 H       1  UNL1        0.0427
     35 H           1.4713    3.8267    1.3577 H       1  UNL1        0.0427
     36 H           0.6055   -3.3847    1.0942 H       1  UNL1        0.1520
     37 H          -0.6786   -2.9001    3.4135 H       1  UNL1        0.0471
     38 H           1.0458   -2.5007    3.6016 H       1  UNL1        0.0471
     39 H          -1.1111   -2.3049    6.1139 H       1  UNL1        0.0531
     40 H           0.6132   -1.9055    6.3020 H       1  UNL1        0.0531
     41 H          -1.3178   -3.6946   -1.4531 H       1  UNL1        0.0524
     42 H          -0.1016   -4.8322   -2.0815 H       1  UNL1        0.0524
     43 H          -0.2199   -4.5333   -0.3308 H       1  UNL1        0.0524
     44 H           2.6981    1.9574    1.5467 H       1  UNL1        0.0423
     45 H           3.0962    1.8039   -0.1761 H       1  UNL1        0.0423
     46 O          -1.2520    3.4991   -0.5208 O.co2   1  UNL1       -0.5433
@<TRIPOS>UNITY_ATOM_ATTR
46 1
charge -1
@<TRIPOS>BOND
     1     1     2    1
     2     1    31    1
     3     1    32    1
     4     1    33    1
     5     2     6   ar
     6     2     3   ar
     7     3     4   ar
     8     3     7    1
     9     4     5   ar
    10     5     6   ar
    11     7     8    1
    12     8     9    1
    13     8    34    1
    14     8    35    1
    15     9    28    1
    16     9    10    2
    17    10    11    1
    18    10    29    1
    19    11    15   am
    20    11    12    1
    21    12    13    1
    22    12    14    1
    23    12    27    1
    24    14    15    1
    25    14    17    1
    26    14    25    1
    27    15    16    2
    28    17    18   am
    29    17    36    1
    30    18    19    2
    31    18    20    1
    32    20    21    1
    33    20    37    1
    34    20    38    1
    35    21    22    1
    36    22    23    1
    37    22    39    1
    38    22    40    1
    39    23    24    3
    40    25    26    1
    41    26    41    1
    42    26    42    1
    43    26    43    1
    44    27    28    1
    45    28    44    1
    46    28    45    1
    47    29    30   ar
    48    29    46   ar
