@<TRIPOS>MOLECULE
ZINC03830179
 32 34 0 0 0
SMALL
GASTEIGER

@<TRIPOS>ATOM
      1 C2          3.1969    3.0661   -0.0128 C.ar    1    A1        0.1205
      2 N1          3.9808    2.0032   -0.0260 N.ar    1    A1       -0.2188
      3 C6          3.4744    0.7747   -0.0274 C.ar    1    A1        0.1472
      4 C5          2.0768    0.6264   -0.0144 C.ar    1    A1        0.1473
      5 C4          1.2867    1.7880   -0.0006 C.ar    1    A1        0.1674
      6 N3          1.8839    2.9755   -0.0003 N.ar    1    A1       -0.2159
      7 N9         -0.0164    1.3589    0.0095 N.ar    1    A1       -0.2855
      8 C8          0.0021   -0.0041    0.0020 C.ar    1    A1        0.1004
      9 N7          1.2311   -0.4319   -0.0120 N.ar    1    A1       -0.2306
     10 C1*        -1.2091    2.2096    0.0200 C.3     1    A1        0.1667
     11 H1*        -1.0234    3.1132    0.6008 H       1    A1        0.0866
     12 C2*        -1.6225    2.5740   -1.4281 C.3     1    A1        0.1285
     13 H2*        -1.4651    1.7341   -2.1047 H       1    A1        0.0665
     14 C3*        -3.1365    2.8638   -1.2383 C.3     1    A1        0.1135
     15 H3*        -3.6903    2.6672   -2.1563 H       1    A1        0.0647
     16 C4*        -3.5269    1.8573   -0.1348 C.3     1    A1        0.1126
     17 H4*        -3.9789    0.9730   -0.5840 H       1    A1        0.0647
     18 O4*        -2.3293    1.4910    0.5604 O.3     1    A1       -0.3457
     19 C5*        -4.5134    2.5070    0.8376 C.3     1    A1        0.0730
     20 O5*        -4.9513    1.5369    1.7910 O.3     1    A1       -0.3924
     21 O3*        -3.3459    4.2073   -0.7985 O.3     1    A1       -0.3864
     22 O2*        -0.9288    3.7370   -1.8846 O.3     1    A1       -0.3847
     23 N6          4.3039   -0.3330   -0.0408 N.pl3   1    A1       -0.3413
     24 H2          3.6502    4.0463   -0.0125 H       1    A1        0.1048
     25 H8         -0.8739   -0.6357    0.0070 H       1    A1        0.1030
     26 H5*1       -4.0231    3.3307    1.3564 H       1    A1        0.0584
     27 H5*2       -5.3726    2.8862    0.2842 H       1    A1        0.0584
     28 H5*        -5.5803    1.8798    2.4406 H       1    A1        0.2095
     29 H3*        -4.2659    4.4113   -0.5819 H       1    A1        0.2100
     30 H2*        -1.1563    4.0020   -2.7863 H       1    A1        0.2101
     31 H61         4.1344   -0.8862    0.7748 H       1    A1        0.1438
     32 H62         5.2669   -0.2176   -0.0497 H       1    A1        0.1438
@<TRIPOS>BOND
     1     1     6   ar
     2     1     2   ar
     3     1    24    1
     4     2     3   ar
     5     3     4   ar
     6     3    23    1
     7     4     9   ar
     8     4     5   ar
     9     5     6   ar
    10     5     7   ar
    11     7     8   ar
    12     7    10    1
    13     8     9   ar
    14     8    25    1
    15    10    11    1
    16    10    18    1
    17    10    12    1
    18    12    13    1
    19    12    14    1
    20    12    22    1
    21    14    15    1
    22    14    16    1
    23    14    21    1
    24    16    17    1
    25    16    18    1
    26    16    19    1
    27    19    20    1
    28    19    26    1
    29    19    27    1
    30    20    28    1
    31    21    29    1
    32    22    30    1
    33    23    31    1
    34    23    32    1
