@<TRIPOS>MOLECULE
ZINC02507451
 24 23 0 0 0
SMALL
GASTEIGER

@<TRIPOS>ATOM
      1 C          -0.0246    1.9617    0.0128 C.3     1  UNL1        0.0319
      2 C          -0.7407    2.4551    1.2716 C.3     1  UNL1        0.0931
      3 H          -1.7328    2.0067    1.3246 H       1  UNL1        0.0628
      4 C          -0.8718    3.9786    1.2198 C.3     1  UNL1        0.1100
      5 H           0.1203    4.4271    1.1668 H       1  UNL1        0.0646
      6 C          -1.5879    4.4721    2.4786 C.3     1  UNL1        0.1100
      7 H          -0.9703    4.2653    3.3526 H       1  UNL1        0.0646
      8 C          -1.8301    5.9789    2.3701 C.3     1  UNL1        0.0931
      9 H          -2.4477    6.1856    1.4961 H       1  UNL1        0.0628
     10 C          -2.5462    6.4723    3.6289 C.3     1  UNL1        0.0319
     11 BR         -3.0001    8.3739    3.4218 Br      1  UNL1       -0.0890
     12 O          -0.5776    6.6544    2.2388 O.3     1  UNL1       -0.3883
     13 O          -2.8403    3.7966    2.6098 O.3     1  UNL1       -0.3866
     14 O          -1.6259    4.3528    0.0651 O.3     1  UNL1       -0.3866
     15 O           0.0134    2.0809    2.4263 O.3     1  UNL1       -0.3883
     16 BR          0.0021   -0.0041    0.0020 Br      1  UNL1       -0.0890
     17 H           0.9980    2.3390    0.0051 H       1  UNL1        0.0408
     18 H          -0.5518    2.3228   -0.8702 H       1  UNL1        0.0408
     19 H          -3.4588    5.8950    3.7776 H       1  UNL1        0.0408
     20 H          -1.8922    6.3467    4.4918 H       1  UNL1        0.0408
     21 H           0.0243    6.5149    2.9827 H       1  UNL1        0.2099
     22 H          -3.4422    3.9360    1.8659 H       1  UNL1        0.2100
     23 H          -2.5215    3.9886    0.0452 H       1  UNL1        0.2100
     24 H           0.9090    2.4452    2.4462 H       1  UNL1        0.2099
@<TRIPOS>BOND
     1     1     2    1
     2     1    16    1
     3     1    17    1
     4     1    18    1
     5     2     3    1
     6     2     4    1
     7     2    15    1
     8     4     5    1
     9     4     6    1
    10     4    14    1
    11     6     7    1
    12     6     8    1
    13     6    13    1
    14     8     9    1
    15     8    10    1
    16     8    12    1
    17    10    11    1
    18    10    19    1
    19    10    20    1
    20    12    21    1
    21    13    22    1
    22    14    23    1
    23    15    24    1
