@<TRIPOS>MOLECULE
ZINC03831299
 58 59 0 0 0
SMALL
GASTEIGER

@<TRIPOS>ATOM
      1 C           0.3540   -2.9154   -2.3269 C.3     1  UNL1       -0.0651
      2 C          -0.3690   -1.6114   -1.9834 C.3     1  UNL1       -0.0503
      3 C          -1.2697   -1.8329   -0.7666 C.3     1  UNL1        0.0006
      4 C          -1.8965   -0.5018   -0.3470 C.3     1  UNL1        0.0767
      5 H          -1.1079    0.2172   -0.1252 H       1  UNL1        0.0969
      6 C          -2.7453   -0.7111    0.8806 C.2     1  UNL1        0.3560
      7 O          -3.9264   -0.4587    0.8485 O.2     1  UNL1       -0.2444
      8 O          -2.1891   -1.1778    2.0095 O.3     1  UNL1       -0.4610
      9 C          -3.0668   -1.3547    3.1526 C.3     1  UNL1        0.0899
     10 C          -2.2600   -1.8902    4.3371 C.3     1  UNL1       -0.0306
     11 CA         -2.8403    1.4751   -1.3784 C.3     1  UNL1        0.0531
     12 HA         -2.9013    1.7917   -0.3372 H       1  UNL1        0.0947
     13 CB         -1.6077    2.1039   -2.0312 C.3     1  UNL1       -0.0129
     14 C          -4.0792    1.9197   -2.1121 C.2     1  UNL1        0.2643
     15 O          -4.7297    1.1161   -2.7461 O.2     1  UNL1       -0.2694
     16 N          -4.4644    3.2103   -2.0637 N.am    1  UNL1       -0.2853
     17 C          -3.7323    4.3046   -1.4207 C.3     1  UNL1        0.0297
     18 H          -3.0525    4.7422   -2.1518 H       1  UNL1        0.0503
     19 C          -2.9149    3.8508   -0.2326 C.3     1  UNL1       -0.0340
     20 C          -3.8135    3.3691    0.9064 C.3     1  UNL1       -0.0514
     21 C          -4.7322    4.5237    1.3200 C.3     1  UNL1       -0.0527
     22 C          -5.6310    4.8807    0.1385 C.3     1  UNL1       -0.0485
     23 C          -4.7954    5.3557   -1.0522 C.3     1  UNL1       -0.0203
     24 H          -4.3681    6.3456   -0.8918 H       1  UNL1        0.0319
     25 C          -5.7206    5.2758   -2.3051 C.3     1  UNL1       -0.0245
     26 CA         -5.6934    3.7709   -2.6537 C.3     1  UNL1        0.0662
     27 HA         -5.6794    3.6385   -3.7356 H       1  UNL1        0.0562
     28 C          -6.9019    3.0892   -2.0658 C.2     1  UNL1        0.0622
     29 O          -6.7733    2.3254   -1.1384 O.co2   1  UNL1       -0.5479
     30 H           0.9611   -3.2288   -1.4776 H       1  UNL1        0.0230
     31 H          -0.3798   -3.6887   -2.5540 H       1  UNL1        0.0230
     32 H           0.9957   -2.7576   -3.1937 H       1  UNL1        0.0230
     33 H          -0.9761   -1.2980   -2.8326 H       1  UNL1        0.0265
     34 H           0.3648   -0.8381   -1.7562 H       1  UNL1        0.0265
     35 H          -2.0579   -2.5411   -1.0222 H       1  UNL1        0.0325
     36 H          -0.6767   -2.2309    0.0568 H       1  UNL1        0.0325
     37 H          -3.5126   -0.3967    3.4200 H       1  UNL1        0.0694
     38 H          -3.8547   -2.0640    2.8993 H       1  UNL1        0.0694
     39 H          -1.8141   -2.8482    4.0696 H       1  UNL1        0.0262
     40 H          -1.4721   -1.1809    4.5904 H       1  UNL1        0.0262
     41 H          -2.9189   -2.0230    5.1952 H       1  UNL1        0.0262
     42 HB1        -1.7040    3.1896   -2.0189 H       1  UNL1        0.0289
     43 HB2        -0.7149    1.8121   -1.4782 H       1  UNL1        0.0289
     44 HB3        -1.5260    1.7581   -3.0617 H       1  UNL1        0.0289
     45 H          -2.2600    3.0355   -0.5401 H       1  UNL1        0.0283
     46 H          -2.3058    4.6829    0.1206 H       1  UNL1        0.0283
     47 H          -3.2000    3.0663    1.7550 H       1  UNL1        0.0266
     48 H          -4.4145    2.5249    0.5684 H       1  UNL1        0.0266
     49 H          -4.1301    5.3893    1.5960 H       1  UNL1        0.0265
     50 H          -5.3462    4.2173    2.1669 H       1  UNL1        0.0265
     51 H          -6.3164    5.6745    0.4356 H       1  UNL1        0.0269
     52 H          -6.2051    4.0014   -0.1538 H       1  UNL1        0.0269
     53 H          -6.7320    5.6004   -2.0603 H       1  UNL1        0.0290
     54 H          -5.3138    5.8685   -3.1245 H       1  UNL1        0.0290
     55 N          -2.7384    0.0051   -1.4470 N.4     1  UNL1        0.2457
     56 H1         -3.6773   -0.4034   -1.3708 H       1  UNL1        0.2030
     57 H2         -2.3200   -0.2639   -2.3453 H       1  UNL1        0.2030
     58 OXT        -8.1213    3.3304   -2.5724 O.co2   1  UNL1       -0.5479
@<TRIPOS>UNITY_ATOM_ATTR
55 1
charge 1
58 1
charge -1
@<TRIPOS>BOND
     1     1     2    1
     2     1    30    1
     3     1    31    1
     4     1    32    1
     5     2     3    1
     6     2    33    1
     7     2    34    1
     8     3     4    1
     9     3    35    1
    10     3    36    1
    11     4     5    1
    12     4     6    1
    13     4    55    1
    14     6     7    2
    15     6     8    1
    16     8     9    1
    17     9    10    1
    18     9    37    1
    19     9    38    1
    20    10    39    1
    21    10    40    1
    22    10    41    1
    23    11    12    1
    24    11    13    1
    25    11    14    1
    26    11    55    1
    27    13    42    1
    28    13    43    1
    29    13    44    1
    30    14    15    2
    31    14    16   am
    32    16    26    1
    33    16    17    1
    34    17    18    1
    35    17    23    1
    36    17    19    1
    37    19    20    1
    38    19    45    1
    39    19    46    1
    40    20    21    1
    41    20    47    1
    42    20    48    1
    43    21    22    1
    44    21    49    1
    45    21    50    1
    46    22    23    1
    47    22    51    1
    48    22    52    1
    49    23    24    1
    50    23    25    1
    51    25    26    1
    52    25    53    1
    53    25    54    1
    54    26    27    1
    55    26    28    1
    56    28    29   ar
    57    28    58   ar
    58    55    56    1
    59    55    57    1
