@<TRIPOS>MOLECULE
ZINC03830558
 54 57 0 0 0
SMALL
GASTEIGER

@<TRIPOS>ATOM
      1 C           0.4820    3.8782   -0.7229 C.3     1  UNL1       -0.0383
      2 C           0.5198    2.3725   -0.7748 C.ar    1  UNL1       -0.0266
      3 C          -0.6498    1.6402   -0.6112 C.ar    1  UNL1        0.0369
      4 C          -0.6119    0.2318   -0.6609 C.ar    1  UNL1        0.0369
      5 C           0.5925   -0.4242   -0.8724 C.ar    1  UNL1       -0.0080
      6 C           1.7635    0.3087   -1.0358 C.ar    1  UNL1        0.1266
      7 C           1.7293    1.7100   -0.9876 C.ar    1  UNL1        0.0423
      8 C           2.9735    2.4844   -1.1619 C.2     1  UNL1        0.0754
      9 O           3.3204    2.8348   -2.2722 O.co2   1  UNL1       -0.5445
     10 O           2.9391   -0.3322   -1.2423 O.3     1  UNL1       -0.5061
     11 C          -1.8649   -0.5401   -0.4855 C.2     1  UNL1        0.1984
     12 O          -1.9048   -1.7214   -0.7692 O.2     1  UNL1       -0.2865
     13 C          -3.0617    0.1426    0.0377 C.ar    1  UNL1        0.0816
     14 C          -3.0960    1.5544    0.0879 C.ar    1  UNL1        0.0785
     15 C          -4.2292    2.2030    0.5847 C.ar    1  UNL1        0.1378
     16 C          -5.3182    1.4566    1.0268 C.ar    1  UNL1        0.0708
     17 C          -5.2881    0.0764    0.9782 C.ar    1  UNL1        0.1684
     18 C          -4.1589   -0.5916    0.4833 C.ar    1  UNL1        0.1705
     19 O          -4.1349   -1.9469    0.4382 O.3     1  UNL1       -0.5028
     20 O          -6.3580   -0.6375    1.4125 O.3     1  UNL1       -0.5030
     21 C          -6.5386    2.1597    1.5627 C.3     1  UNL1        0.1194
     22 H          -6.2946    3.2006    1.7751 H       1  UNL1        0.0676
     23 C          -7.6602    2.1001    0.5224 C.3     1  UNL1        0.1139
     24 H          -7.3495    2.6285   -0.3789 H       1  UNL1        0.0649
     25 C          -8.9153    2.7635    1.0976 C.3     1  UNL1        0.1121
     26 H          -9.7343    2.6751    0.3837 H       1  UNL1        0.0647
     27 C          -9.2969    2.0619    2.4047 C.3     1  UNL1        0.1117
     28 H          -9.5473    1.0209    2.2007 H       1  UNL1        0.0647
     29 C          -8.1121    2.1230    3.3723 C.3     1  UNL1        0.1108
     30 H          -8.3629    1.5880    4.2883 H       1  UNL1        0.0646
     31 O          -6.9701    1.5167    2.7638 O.3     1  UNL1       -0.3609
     32 C          -7.7986    3.5834    3.7039 C.3     1  UNL1        0.0729
     33 O          -6.7957    3.6363    4.7205 O.3     1  UNL1       -0.3924
     34 O         -10.4241    2.7188    2.9878 O.3     1  UNL1       -0.3865
     35 O          -8.6529    4.1444    1.3552 O.3     1  UNL1       -0.3865
     36 O          -7.9442    0.7363    0.2040 O.3     1  UNL1       -0.3862
     37 O          -4.2686    3.5575    0.6358 O.3     1  UNL1       -0.5055
     38 C          -1.9363    2.3291   -0.3786 C.2     1  UNL1        0.1984
     39 O          -2.0379    3.5249   -0.5785 O.2     1  UNL1       -0.2865
     40 H           0.5066    4.2067    0.3161 H       1  UNL1        0.0278
     41 H           1.3452    4.2817   -1.2521 H       1  UNL1        0.0278
     42 H          -0.4332    4.2351   -1.1953 H       1  UNL1        0.0278
     43 H           0.6208   -1.5032   -0.9098 H       1  UNL1        0.0661
     44 H           3.1419   -0.4914   -2.1743 H       1  UNL1        0.2922
     45 H          -3.7836   -2.3610    1.2383 H       1  UNL1        0.2923
     46 H          -7.0121   -0.8233    0.7250 H       1  UNL1        0.2923
     47 H          -7.4361    4.0894    2.8091 H       1  UNL1        0.0584
     48 H          -8.7028    4.0774    4.0595 H       1  UNL1        0.0584
     49 H          -6.5469    4.5336    4.9811 H       1  UNL1        0.2095
     50 H         -11.2126    2.7182    2.4281 H       1  UNL1        0.2100
     51 H          -9.4050    4.6250    1.7273 H       1  UNL1        0.2100
     52 H          -8.6468    0.6234   -0.4508 H       1  UNL1        0.2100
     53 H          -4.6247    3.9711   -0.1626 H       1  UNL1        0.2922
     54 O           3.7247    2.8028   -0.0897 O.co2   1  UNL1       -0.5445
@<TRIPOS>UNITY_ATOM_ATTR
54 1
charge -1
@<TRIPOS>BOND
     1     1     2    1
     2     1    40    1
     3     1    41    1
     4     1    42    1
     5     2     7   ar
     6     2     3   ar
     7     3    38    1
     8     3     4   ar
     9     4     5   ar
    10     4    11    1
    11     5     6   ar
    12     5    43    1
    13     6     7   ar
    14     6    10    1
    15     7     8    1
    16     8     9   ar
    17     8    54   ar
    18    10    44    1
    19    11    12    2
    20    11    13    1
    21    13    18   ar
    22    13    14   ar
    23    14    15   ar
    24    14    38    1
    25    15    16   ar
    26    15    37    1
    27    16    17   ar
    28    16    21    1
    29    17    18   ar
    30    17    20    1
    31    18    19    1
    32    19    45    1
    33    20    46    1
    34    21    22    1
    35    21    31    1
    36    21    23    1
    37    23    24    1
    38    23    25    1
    39    23    36    1
    40    25    26    1
    41    25    27    1
    42    25    35    1
    43    27    28    1
    44    27    29    1
    45    27    34    1
    46    29    30    1
    47    29    31    1
    48    29    32    1
    49    32    33    1
    50    32    47    1
    51    32    48    1
    52    33    49    1
    53    34    50    1
    54    35    51    1
    55    36    52    1
    56    37    53    1
    57    38    39    2
