@<TRIPOS>MOLECULE
ZINC12503197
 48 51 0 0 0
SMALL
GASTEIGER

@<TRIPOS>ATOM
      1 C           6.9536   -4.1357   -1.5390 C.3     1  UNL1        0.0309
      2 N           6.4561   -2.9415   -2.2265 N.ar    1  UNL1       -0.2660
      3 C           7.1294   -2.2862   -3.2243 C.ar    1  UNL1        0.0693
      4 C           8.3494   -2.4708   -3.8671 C.ar    1  UNL1       -0.0360
      5 C           8.7345   -1.6069   -4.8537 C.ar    1  UNL1       -0.0597
      6 C           7.9239   -0.5422   -5.2259 C.ar    1  UNL1       -0.0610
      7 C           6.7204   -0.3375   -4.6104 C.ar    1  UNL1       -0.0503
      8 C           6.3088   -1.2058   -3.6034 C.ar    1  UNL1        0.0321
      9 C           5.1306   -1.3200   -2.7337 C.ar    1  UNL1        0.1547
     10 N           5.3357   -2.3703   -1.9682 N.ar    1  UNL1       -0.1656
     11 C           3.9552   -0.4311   -2.7175 C.2     1  UNL1        0.2650
     12 O           3.8966    0.5136   -3.4811 O.2     1  UNL1       -0.2684
     13 N           2.9451   -0.6651   -1.8564 N.am    1  UNL1       -0.3068
     14 C           1.7681    0.2250   -1.8402 C.3     1  UNL1        0.0336
     15 C           0.5749   -0.5295   -1.3006 C.3     1  UNL1        0.0090
     16 C           0.0021   -0.0041    0.0020 C.3     1  UNL1       -0.0192
     17 H          -1.0488   -0.3455    0.0705 H       1  UNL1        0.0852
     18 C           0.7400   -0.5616    1.2123 C.3     1  UNL1       -0.0094
     19 C           2.1328    0.0447    1.3555 C.3     1  UNL1       -0.0429
     20 C           2.0572    1.5696    1.2888 C.3     1  UNL1       -0.0094
     21 C           1.3412    1.9887   -0.0001 C.3     1  UNL1       -0.0192
     22 H           1.2785    3.0882   -0.0024 H       1  UNL1        0.0852
     23 C           2.1356    1.5434   -1.2084 C.3     1  UNL1        0.0090
     24 C          -0.8531    2.0199   -1.0499 C.3     1  UNL1       -0.0426
     25 H           7.5365   -3.8370   -0.6678 H       1  UNL1        0.0473
     26 H           6.1107   -4.7486   -1.2196 H       1  UNL1        0.0473
     27 H           7.5836   -4.7100   -2.2183 H       1  UNL1        0.0473
     28 H           8.9899   -3.2942   -3.5875 H       1  UNL1        0.0639
     29 H           9.6822   -1.7539   -5.3504 H       1  UNL1        0.0618
     30 H           8.2470    0.1295   -6.0075 H       1  UNL1        0.0618
     31 H           6.0934    0.4916   -4.9036 H       1  UNL1        0.0625
     32 H           2.9918   -1.4186   -1.2474 H       1  UNL1        0.1493
     33 H           1.5536    0.4319   -2.9193 H       1  UNL1        0.0502
     34 H           0.8631   -1.5861   -1.1499 H       1  UNL1        0.0338
     35 H          -0.2206   -0.5484   -2.0621 H       1  UNL1        0.0338
     36 H           0.1606   -0.3502    2.1171 H       1  UNL1        0.0320
     37 H           0.8287   -1.6483    1.1125 H       1  UNL1        0.0320
     38 H           2.7913   -0.3310    0.5759 H       1  UNL1        0.0269
     39 H           2.5507   -0.2467    2.3269 H       1  UNL1        0.0269
     40 H           3.0636    1.9882    1.2939 H       1  UNL1        0.0320
     41 H           1.5023    1.9478    2.1475 H       1  UNL1        0.0320
     42 H           3.2061    1.5116   -0.9240 H       1  UNL1        0.0338
     43 H           2.0743    2.3369   -1.9776 H       1  UNL1        0.0338
     44 H          -1.8792    1.6731   -0.9268 H       1  UNL1        0.0778
     45 H          -0.8281    3.1081   -0.9928 H       1  UNL1        0.0778
     46 H          -0.4749    1.6982   -2.0203 H       1  UNL1        0.0778
     47 N          -0.0323    1.4662    0.0577 N.4     1  UNL1        0.2375
     48 H          -0.4556    1.7514    0.9486 H       1  UNL1        0.2036
@<TRIPOS>UNITY_ATOM_ATTR
47 1
charge 1
@<TRIPOS>BOND
     1     1     2    1
     2     1    25    1
     3     1    26    1
     4     1    27    1
     5     2    10   ar
     6     2     3   ar
     7     3     8   ar
     8     3     4   ar
     9     4     5   ar
    10     4    28    1
    11     5     6   ar
    12     5    29    1
    13     6     7   ar
    14     6    30    1
    15     7     8   ar
    16     7    31    1
    17     8     9   ar
    18     9    10   ar
    19     9    11    1
    20    11    12    2
    21    11    13   am
    22    13    14    1
    23    13    32    1
    24    14    23    1
    25    14    15    1
    26    14    33    1
    27    15    16    1
    28    15    34    1
    29    15    35    1
    30    16    17    1
    31    16    18    1
    32    16    47    1
    33    18    19    1
    34    18    36    1
    35    18    37    1
    36    19    20    1
    37    19    38    1
    38    19    39    1
    39    20    21    1
    40    20    40    1
    41    20    41    1
    42    21    22    1
    43    21    23    1
    44    21    47    1
    45    23    42    1
    46    23    43    1
    47    24    44    1
    48    24    45    1
    49    24    46    1
    50    24    47    1
    51    47    48    1
