@<TRIPOS>MOLECULE
ZINC00056545
 42 44 0 0 0
SMALL
GASTEIGER

@<TRIPOS>ATOM
      1 C           0.4253   -6.8929   -3.7568 C.3     1  UNL1       -0.0484
      2 C           1.7599   -6.2584   -3.3606 C.3     1  UNL1        0.0601
      3 C           2.4105   -6.9152   -2.1262 C.3     1  UNL1        0.0038
      4 C           3.8142   -7.3549   -2.5927 C.3     1  UNL1       -0.0292
      5 C           2.8390   -6.3564   -4.4767 C.3     1  UNL1        0.0583
      6 H           2.6646   -7.1793   -5.1699 H       1  UNL1        0.1088
      7 N           2.7591   -5.0323   -5.1240 N.pl3   1  UNL1       -0.2914
      8 C           2.2764   -4.1131   -4.1819 C.ar    1  UNL1        0.0378
      9 C           1.6578   -4.7650   -3.1229 C.ar    1  UNL1       -0.0096
     10 C           1.0945   -4.0444   -2.0903 C.ar    1  UNL1       -0.0135
     11 C           1.1495   -2.6581   -2.0993 C.ar    1  UNL1        0.1336
     12 C           1.7666   -2.0003   -3.1527 C.ar    1  UNL1       -0.0174
     13 C           2.3312   -2.7204   -4.1847 C.ar    1  UNL1       -0.0368
     14 O           0.5952   -1.9465   -1.0812 O.3     1  UNL1       -0.4115
     15 C          -0.5908   -1.3563   -1.3227 C.2     1  UNL1        0.4053
     16 O          -1.0742   -1.3973   -2.4368 O.2     1  UNL1       -0.2260
     17 N          -1.2416   -0.7200   -0.3287 N.am    1  UNL1       -0.2839
     18 C          -2.5319   -0.0779   -0.5914 C.3     1  UNL1        0.0032
     19 C           4.0709   -4.6182   -5.6393 C.3     1  UNL1        0.0056
     20 C           5.1684   -7.0487   -4.5927 C.3     1  UNL1       -0.0412
     21 H           0.0556   -6.4225   -4.6679 H       1  UNL1        0.0241
     22 H           0.5674   -7.9596   -3.9306 H       1  UNL1        0.0241
     23 H          -0.2980   -6.7488   -2.9542 H       1  UNL1        0.0241
     24 H           2.4911   -6.1941   -1.3128 H       1  UNL1        0.0328
     25 H           1.8285   -7.7800   -1.8075 H       1  UNL1        0.0328
     26 H           4.5424   -7.2109   -1.7946 H       1  UNL1        0.0815
     27 H           3.8001   -8.3976   -2.9098 H       1  UNL1        0.0815
     28 H           0.6105   -4.5598   -1.2739 H       1  UNL1        0.0658
     29 H           1.8087   -0.9211   -3.1630 H       1  UNL1        0.0655
     30 H           2.8139   -2.2028   -5.0005 H       1  UNL1        0.0637
     31 H          -0.8558   -0.6873    0.5606 H       1  UNL1        0.1517
     32 H          -2.4075    0.6878   -1.3571 H       1  UNL1        0.0427
     33 H          -3.2459   -0.8252   -0.9376 H       1  UNL1        0.0427
     34 H          -2.9024    0.3815    0.3250 H       1  UNL1        0.0427
     35 H           4.8059   -4.6571   -4.8353 H       1  UNL1        0.0429
     36 H           4.3746   -5.2902   -6.4420 H       1  UNL1        0.0429
     37 H           4.0057   -3.6000   -6.0230 H       1  UNL1        0.0429
     38 H           5.2596   -6.4642   -5.5082 H       1  UNL1        0.0778
     39 H           6.1187   -7.0386   -4.0589 H       1  UNL1        0.0778
     40 H           4.9029   -8.0760   -4.8424 H       1  UNL1        0.0778
     41 N           4.0891   -6.4720   -3.7313 N.4     1  UNL1        0.2494
     42 H           4.3836   -5.5475   -3.3956 H       1  UNL1        0.2051
@<TRIPOS>UNITY_ATOM_ATTR
41 1
charge 1
@<TRIPOS>BOND
     1     1     2    1
     2     1    21    1
     3     1    22    1
     4     1    23    1
     5     2     5    1
     6     2     9    1
     7     2     3    1
     8     3     4    1
     9     3    24    1
    10     3    25    1
    11     4    26    1
    12     4    27    1
    13     4    41    1
    14     5     6    1
    15     5     7    1
    16     5    41    1
    17     7     8    1
    18     7    19    1
    19     8    13   ar
    20     8     9   ar
    21     9    10   ar
    22    10    11   ar
    23    10    28    1
    24    11    12   ar
    25    11    14    1
    26    12    13   ar
    27    12    29    1
    28    13    30    1
    29    14    15    1
    30    15    16    2
    31    15    17   am
    32    17    18    1
    33    17    31    1
    34    18    32    1
    35    18    33    1
    36    18    34    1
    37    19    35    1
    38    19    36    1
    39    19    37    1
    40    20    38    1
    41    20    39    1
    42    20    40    1
    43    20    41    1
    44    41    42    1
