@<TRIPOS>MOLECULE
ZINC00011012
 31 33 0 0 0
SMALL
GASTEIGER

@<TRIPOS>ATOM
      1 C           3.5655    3.7409    0.0887 C.ar    1  UNL1       -0.0617
      2 C           2.4067    4.2964   -0.4244 C.ar    1  UNL1       -0.0611
      3 C           1.2398    3.5613   -0.4532 C.ar    1  UNL1       -0.0509
      4 C           1.2297    2.2542    0.0373 C.ar    1  UNL1        0.0237
      5 C           2.4010    1.7018    0.5588 C.ar    1  UNL1       -0.0509
      6 C           3.5624    2.4459    0.5764 C.ar    1  UNL1       -0.0611
      7 C          -0.0178    1.4604    0.0101 C.2     1  UNL1        0.2093
      8 O          -1.0972    2.0211    0.0579 O.2     1  UNL1       -0.2851
      9 C           0.0454   -0.0001   -0.0804 C.ar    1  UNL1        0.0899
     10 C           1.1836   -0.7562   -0.2730 C.ar    1  UNL1       -0.0327
     11 C           0.7882   -2.0943   -0.2943 C.ar    1  UNL1       -0.0396
     12 C          -0.5607   -2.1352   -0.1279 C.ar    1  UNL1        0.0279
     13 N          -1.0251   -0.8704    0.0056 N.ar    1  UNL1       -0.3406
     14 C          -2.4853   -0.8638    0.1951 C.3     1  UNL1        0.0246
     15 C          -2.9699   -2.2536   -0.2689 C.3     1  UNL1       -0.0216
     16 C          -1.7105   -3.1199   -0.0448 C.3     1  UNL1        0.0405
     17 H          -1.6230   -3.8750   -0.8260 H       1  UNL1        0.0424
     18 C          -1.7518   -3.7686    1.3148 C.2     1  UNL1        0.0506
     19 O          -0.9321   -3.4713    2.1512 O.co2   1  UNL1       -0.5491
     20 H           4.4765    4.3207    0.1089 H       1  UNL1        0.0618
     21 H           2.4159    5.3076   -0.8035 H       1  UNL1        0.0618
     22 H           0.3360    3.9960   -0.8539 H       1  UNL1        0.0625
     23 H           2.3989    0.6927    0.9436 H       1  UNL1        0.0625
     24 H           4.4703    2.0183    0.9755 H       1  UNL1        0.0618
     25 H           2.1909   -0.3828   -0.3840 H       1  UNL1        0.0640
     26 H           1.4383   -2.9468   -0.4246 H       1  UNL1        0.0636
     27 H          -2.7282   -0.7117    1.2468 H       1  UNL1        0.0492
     28 H          -2.9408   -0.0832   -0.4142 H       1  UNL1        0.0492
     29 H          -3.2494   -2.2373   -1.3223 H       1  UNL1        0.0292
     30 H          -3.7985   -2.6037    0.3468 H       1  UNL1        0.0292
     31 O          -2.6994   -4.6766    1.5967 O.co2   1  UNL1       -0.5491
@<TRIPOS>UNITY_ATOM_ATTR
31 1
charge -1
@<TRIPOS>BOND
     1     1     6   ar
     2     1     2   ar
     3     1    20    1
     4     2     3   ar
     5     2    21    1
     6     3     4   ar
     7     3    22    1
     8     4     5   ar
     9     4     7    1
    10     5     6   ar
    11     5    23    1
    12     6    24    1
    13     7     8    2
    14     7     9    1
    15     9    13   ar
    16     9    10   ar
    17    10    11   ar
    18    10    25    1
    19    11    12   ar
    20    11    26    1
    21    12    16    1
    22    12    13   ar
    23    13    14    1
    24    14    15    1
    25    14    27    1
    26    14    28    1
    27    15    16    1
    28    15    29    1
    29    15    30    1
    30    16    17    1
    31    16    18    1
    32    18    19   ar
    33    18    31   ar
