@<TRIPOS>MOLECULE
ZINC00896650
 53 56 0 0 0
SMALL
GASTEIGER

@<TRIPOS>ATOM
      1 C          -3.5547   -2.7069   -1.7757 C.3     1  UNL1       -0.0428
      2 C          -4.3482   -4.7358   -0.7200 C.3     1  UNL1       -0.0319
      3 C          -3.9174   -6.1156   -0.2174 C.3     1  UNL1       -0.0123
      4 C          -2.9361   -5.9462    0.9458 C.3     1  UNL1       -0.0432
      5 C          -1.7377   -5.1172    0.4753 C.3     1  UNL1       -0.0094
      6 C          -2.2317   -3.7663   -0.0471 C.3     1  UNL1       -0.0197
      7 H          -2.7389   -3.2301    0.7550 H       1  UNL1        0.0851
      8 C          -1.0393   -2.9421   -0.5367 C.3     1  UNL1        0.0064
      9 C          -0.1331   -2.6025    0.6483 C.3     1  UNL1        0.0224
     10 N           1.0487   -1.8818    0.1685 N.pl3   1  UNL1       -0.2981
     11 C           2.1620   -2.6376   -0.1899 C.ar    1  UNL1        0.0479
     12 C           1.9803   -3.9661   -0.5606 C.ar    1  UNL1       -0.0393
     13 C           3.0638   -4.7452   -0.9190 C.ar    1  UNL1       -0.0599
     14 C           4.3382   -4.2104   -0.9119 C.ar    1  UNL1       -0.0606
     15 C           4.5307   -2.8908   -0.5461 C.ar    1  UNL1       -0.0462
     16 C           3.4470   -2.1021   -0.1868 C.ar    1  UNL1        0.0341
     17 S           3.7102   -0.4215    0.2699 S.3     1  UNL1       -0.0857
     18 C           2.1120    0.3082    0.1463 C.ar    1  UNL1        0.0342
     19 C           0.9738   -0.4929    0.1048 C.ar    1  UNL1        0.0490
     20 C          -0.2763    0.1077    0.0015 C.ar    1  UNL1       -0.0235
     21 C          -0.3867    1.4842   -0.0591 C.ar    1  UNL1        0.0404
     22 C           0.7451    2.2754   -0.0154 C.ar    1  UNL1       -0.0448
     23 C           1.9937    1.6891    0.0878 C.ar    1  UNL1       -0.0451
     24 S          -1.9758    2.2322   -0.2000 S.O     1  UNL1        0.0507
     25 O          -1.7112    3.4903   -0.8053 O.2     1  UNL1       -0.2524
     26 C          -2.4955    2.4858    1.5193 C.3     1  UNL1        0.0163
     27 H          -2.6888   -2.2621   -2.2660 H       1  UNL1        0.0778
     28 H          -4.3385   -2.8833   -2.5123 H       1  UNL1        0.0778
     29 H          -3.9248   -2.0290   -1.0066 H       1  UNL1        0.0778
     30 H          -4.8455   -4.1950    0.0852 H       1  UNL1        0.0814
     31 H          -5.0359   -4.8528   -1.5575 H       1  UNL1        0.0814
     32 H          -4.7929   -6.6687    0.1228 H       1  UNL1        0.0317
     33 H          -3.4323   -6.6623   -1.0260 H       1  UNL1        0.0317
     34 H          -3.4327   -5.4337    1.7697 H       1  UNL1        0.0269
     35 H          -2.5940   -6.9259    1.2794 H       1  UNL1        0.0269
     36 H          -1.2185   -5.6482   -0.3225 H       1  UNL1        0.0320
     37 H          -1.0558   -4.9571    1.3105 H       1  UNL1        0.0320
     38 H          -1.3983   -2.0207   -0.9954 H       1  UNL1        0.0335
     39 H          -0.4765   -3.5182   -1.2712 H       1  UNL1        0.0335
     40 H           0.1784   -3.5226    1.1429 H       1  UNL1        0.0470
     41 H          -0.6782   -1.9767    1.3549 H       1  UNL1        0.0470
     42 H           0.9873   -4.3906   -0.5688 H       1  UNL1        0.0636
     43 H           2.9143   -5.7756   -1.2059 H       1  UNL1        0.0618
     44 H           5.1829   -4.8225   -1.1914 H       1  UNL1        0.0618
     45 H           5.5266   -2.4730   -0.5403 H       1  UNL1        0.0629
     46 H          -1.1654   -0.5045   -0.0318 H       1  UNL1        0.0648
     47 H           0.6550    3.3507   -0.0613 H       1  UNL1        0.0630
     48 H           2.8783    2.3077    0.1227 H       1  UNL1        0.0630
     49 H          -1.7794    3.1349    2.0234 H       1  UNL1        0.0368
     50 H          -3.4814    2.9504    1.5362 H       1  UNL1        0.0368
     51 H          -2.5380    1.5247    2.0316 H       1  UNL1        0.0368
     52 N          -3.1525   -3.9979   -1.1802 N.4     1  UNL1        0.2353
     53 H          -2.6695   -4.5576   -1.8927 H       1  UNL1        0.2033
@<TRIPOS>UNITY_ATOM_ATTR
52 1
charge 1
@<TRIPOS>BOND
     1     1    27    1
     2     1    28    1
     3     1    29    1
     4     1    52    1
     5     2     3    1
     6     2    30    1
     7     2    31    1
     8     2    52    1
     9     3     4    1
    10     3    32    1
    11     3    33    1
    12     4     5    1
    13     4    34    1
    14     4    35    1
    15     5     6    1
    16     5    36    1
    17     5    37    1
    18     6     7    1
    19     6     8    1
    20     6    52    1
    21     8     9    1
    22     8    38    1
    23     8    39    1
    24     9    10    1
    25     9    40    1
    26     9    41    1
    27    10    19    1
    28    10    11    1
    29    11    16   ar
    30    11    12   ar
    31    12    13   ar
    32    12    42    1
    33    13    14   ar
    34    13    43    1
    35    14    15   ar
    36    14    44    1
    37    15    16   ar
    38    15    45    1
    39    16    17    1
    40    17    18    1
    41    18    23   ar
    42    18    19   ar
    43    19    20   ar
    44    20    21   ar
    45    20    46    1
    46    21    22   ar
    47    21    24    1
    48    22    23   ar
    49    22    47    1
    50    23    48    1
    51    24    25    2
    52    24    26    1
    53    26    49    1
    54    26    50    1
    55    26    51    1
    56    52    53    1
