@<TRIPOS>MOLECULE
ZINC03830857
 61 64 0 0 0
SMALL
GASTEIGER

@<TRIPOS>ATOM
      1 C          -3.9092    0.2719   -2.6888 C.3     1  UNL1        0.0332
      2 C          -3.2495   -0.1700   -1.4079 C.2     1  UNL1        0.3043
      3 O          -3.3929   -1.3033   -1.0142 O.2     1  UNL1       -0.2512
      4 O          -2.5027    0.6955   -0.7043 O.3     1  UNL1       -0.4570
      5 C          -1.8977    0.2009    0.5194 C.3     1  UNL1        0.1530
      6 C          -1.1028    1.3045    1.1685 C.2     1  UNL1        0.2022
      7 O          -1.0516    2.3953    0.6529 O.2     1  UNL1       -0.2907
      8 C          -0.3743    1.0477    2.4568 C.3     1  UNL1        0.1326
      9 C           0.7557    2.0883    2.6654 C.3     1  UNL1       -0.0161
     10 C           0.6386    2.5775    4.1363 C.3     1  UNL1       -0.0462
     11 C          -0.2843    1.5299    4.7755 C.3     1  UNL1       -0.0266
     12 H           0.3158    0.5989    4.8954 H       1  UNL1        0.0311
     13 C          -1.3164    1.2955    3.6560 C.3     1  UNL1        0.0094
     14 C          -2.2140    0.1483    4.0173 C.3     1  UNL1       -0.0151
     15 C          -2.7795    0.2684    5.4362 C.3     1  UNL1        0.0907
     16 H          -2.4327   -0.6066    6.0059 H       1  UNL1        0.0625
     17 C          -2.3943    1.5367    6.1719 C.3     1  UNL1        0.1492
     18 C          -0.9051    1.8542    6.0933 C.3     1  UNL1       -0.0000
     19 H          -0.4068    1.2030    6.8501 H       1  UNL1        0.0335
     20 C          -0.6483    3.2885    6.5467 C.3     1  UNL1       -0.0432
     21 C          -1.1879    3.4712    7.9677 C.3     1  UNL1       -0.0304
     22 C          -1.7242    2.1488    8.4790 C.2     1  UNL1       -0.0572
     23 C          -1.2434    1.6815    9.6294 C.2     1  UNL1       -0.0194
     24 C          -1.7322    0.4270   10.2045 C.2     1  UNL1        0.1561
     25 O          -1.1713   -0.0856   11.1570 O.2     1  UNL1       -0.2927
     26 C          -2.9531   -0.2153    9.5833 C.3     1  UNL1        0.0107
     27 C          -2.8733   -0.0451    8.0665 C.3     1  UNL1       -0.0339
     28 C          -2.7526    1.4124    7.6700 C.3     1  UNL1        0.0263
     29 C          -4.1052    2.0955    7.8794 C.3     1  UNL1       -0.0528
     30 F          -3.1506    2.6216    5.7070 F       1  UNL1       -0.2380
     31 O          -4.2135    0.1832    5.3570 O.3     1  UNL1       -0.3886
     32 C          -2.1159    2.5507    3.3039 C.3     1  UNL1       -0.0562
     33 O           0.1457   -0.2767    2.5013 O.3     1  UNL1       -0.3804
     34 H          -3.2356    0.0895   -3.5261 H       1  UNL1        0.0342
     35 H          -4.8314   -0.2904   -2.8353 H       1  UNL1        0.0342
     36 H          -4.1377    1.3361   -2.6314 H       1  UNL1        0.0342
     37 H          -2.6147   -0.1060    1.1453 H       1  UNL1        0.0779
     38 H          -1.2369   -0.6341    0.2864 H       1  UNL1        0.0779
     39 H           1.7267    1.6222    2.5043 H       1  UNL1        0.0297
     40 H           0.6227    2.9257    1.9817 H       1  UNL1        0.0297
     41 H           0.2110    3.5742    4.1850 H       1  UNL1        0.0269
     42 H           1.6195    2.5630    4.6171 H       1  UNL1        0.0269
     43 H          -3.0480    0.0883    3.3013 H       1  UNL1        0.0297
     44 H          -1.6581   -0.7995    3.9372 H       1  UNL1        0.0297
     45 H           0.4235    3.4846    6.5403 H       1  UNL1        0.0272
     46 H          -1.1521    3.9818    5.8761 H       1  UNL1        0.0272
     47 H          -0.3783    3.8089    8.6176 H       1  UNL1        0.0310
     48 H          -1.9807    4.2175    7.9641 H       1  UNL1        0.0310
     49 H          -0.4744    2.2418   10.1478 H       1  UNL1        0.0652
     50 H          -3.7780    0.2255    9.9370 H       1  UNL1        0.0345
     51 H          -2.9718   -1.2811    9.8281 H       1  UNL1        0.0345
     52 H          -3.7691   -0.4719    7.6183 H       1  UNL1        0.0279
     53 H          -1.9956   -0.5872    7.7088 H       1  UNL1        0.0279
     54 H          -4.8597    1.6032    7.2659 H       1  UNL1        0.0239
     55 H          -4.3888    2.0257    8.9296 H       1  UNL1        0.0239
     56 H          -4.0309    3.1443    7.5920 H       1  UNL1        0.0239
     57 H          -4.5380   -0.6448    4.9773 H       1  UNL1        0.2099
     58 H          -2.9682    2.2762    2.6824 H       1  UNL1        0.0236
     59 H          -2.4712    3.0239    4.2193 H       1  UNL1        0.0236
     60 H          -1.4781    3.2467    2.7590 H       1  UNL1        0.0236
     61 H           0.7649   -0.4804    1.7870 H       1  UNL1        0.2108
@<TRIPOS>BOND
     1     1     2    1
     2     1    34    1
     3     1    35    1
     4     1    36    1
     5     2     3    2
     6     2     4    1
     7     4     5    1
     8     5     6    1
     9     5    37    1
    10     5    38    1
    11     6     7    2
    12     6     8    1
    13     8    13    1
    14     8     9    1
    15     8    33    1
    16     9    10    1
    17     9    39    1
    18     9    40    1
    19    10    11    1
    20    10    41    1
    21    10    42    1
    22    11    12    1
    23    11    18    1
    24    11    13    1
    25    13    14    1
    26    13    32    1
    27    14    15    1
    28    14    43    1
    29    14    44    1
    30    15    16    1
    31    15    17    1
    32    15    31    1
    33    17    28    1
    34    17    18    1
    35    17    30    1
    36    18    19    1
    37    18    20    1
    38    20    21    1
    39    20    45    1
    40    20    46    1
    41    21    22    1
    42    21    47    1
    43    21    48    1
    44    22    28    1
    45    22    23    2
    46    23    24    1
    47    23    49    1
    48    24    25    2
    49    24    26    1
    50    26    27    1
    51    26    50    1
    52    26    51    1
    53    27    28    1
    54    27    52    1
    55    27    53    1
    56    28    29    1
    57    29    54    1
    58    29    55    1
    59    29    56    1
    60    31    57    1
    61    32    58    1
    62    32    59    1
    63    32    60    1
    64    33    61    1
