@<TRIPOS>MOLECULE
ZINC00001386
 21 21 0 0 0
SMALL
GASTEIGER

@<TRIPOS>ATOM
      1 C           0.2517   -2.6856    1.1678 C.3     1  UNL1       -0.0598
      2 C           1.0827   -2.1950   -0.0195 C.3     1  UNL1       -0.0132
      3 C           1.1286   -0.6887   -0.0124 C.ar    1  UNL1        0.0417
      4 C           2.3501   -0.0445   -0.0206 C.ar    1  UNL1       -0.0310
      5 C           2.3791    1.3543   -0.0133 C.ar    1  UNL1        0.0060
      6 C           1.1590    2.0396    0.0019 C.ar    1  UNL1       -0.0341
      7 C          -0.0158    1.3144    0.0093 C.ar    1  UNL1        0.0285
      8 N           0.0021   -0.0041    0.0020 N.ar    1  UNL1       -0.2599
      9 C           3.6629    2.0879   -0.0212 C.2     1  UNL1        0.0769
     10 S           5.0008    1.4628   -0.8872 S.2     1  UNL1       -0.0352
     11 N           3.7797    3.2488    0.6535 N.am    1  UNL1       -0.3518
     12 H           0.7059   -2.3403    2.0965 H       1  UNL1        0.0233
     13 H          -0.7614   -2.2909    1.0900 H       1  UNL1        0.0233
     14 H           0.2185   -3.7751    1.1626 H       1  UNL1        0.0233
     15 H           0.6285   -2.5403   -0.9483 H       1  UNL1        0.0326
     16 H           2.0957   -2.5898    0.0582 H       1  UNL1        0.0326
     17 H           3.2690   -0.6118   -0.0327 H       1  UNL1        0.0642
     18 H           1.1368    3.1193    0.0076 H       1  UNL1        0.0639
     19 H          -0.9625    1.8342    0.0165 H       1  UNL1        0.0830
     20 H           3.0217    3.6030    1.1442 H       1  UNL1        0.1428
     21 H           4.6219    3.7301    0.6484 H       1  UNL1        0.1428
@<TRIPOS>BOND
     1     1     2    1
     2     1    12    1
     3     1    13    1
     4     1    14    1
     5     2     3    1
     6     2    15    1
     7     2    16    1
     8     3     8   ar
     9     3     4   ar
    10     4     5   ar
    11     4    17    1
    12     5     6   ar
    13     5     9    1
    14     6     7   ar
    15     6    18    1
    16     7     8   ar
    17     7    19    1
    18     9    10    2
    19     9    11    1
    20    11    20    1
    21    11    21    1
