@<TRIPOS>MOLECULE
ZINC03831248
 52 55 0 0 0
SMALL
GASTEIGER

@<TRIPOS>ATOM
      1 C          -2.2267   -0.3439    1.6158 C.3     1  UNL1       -0.0567
      2 C          -2.0535    1.1646    1.3986 C.3     1  UNL1       -0.0004
      3 C          -0.5865    1.5635    1.3019 C.3     1  UNL1       -0.0445
      4 C           0.0552    1.1012    0.0052 C.3     1  UNL1       -0.0487
      5 C          -0.6790    1.5692   -1.2407 C.3     1  UNL1       -0.0292
      6 H          -0.3616    0.8187   -2.0343 H       1  UNL1        0.0310
      7 C          -2.1662    1.4021   -1.1491 C.3     1  UNL1       -0.0342
      8 H          -2.3225    0.2872   -1.3011 H       1  UNL1        0.0306
      9 C          -2.8354    1.6547    0.1714 C.3     1  UNL1       -0.0298
     10 H          -3.7798    1.0600    0.1536 H       1  UNL1        0.0310
     11 C          -3.2488    3.1031    0.4378 C.3     1  UNL1       -0.0468
     12 C          -2.9646    3.3637    1.9332 C.3     1  UNL1       -0.0235
     13 C          -2.7035    1.9748    2.5514 C.3     1  UNL1        0.0689
     14 C          -1.7864    2.0839    3.7630 C.3     1  UNL1       -0.0356
     15 O          -3.9467    1.3731    2.9262 O.3     1  UNL1       -0.3883
     16 C          -2.9496    2.0108   -2.3056 C.3     1  UNL1       -0.0494
     17 C          -2.4317    3.3858   -2.7023 C.3     1  UNL1       -0.0488
     18 C          -0.9416    3.2987   -3.0271 C.3     1  UNL1       -0.0222
     19 H          -0.7931    2.5408   -3.8054 H       1  UNL1        0.0312
     20 C          -0.1554    2.8877   -1.7803 C.3     1  UNL1        0.0085
     21 C           1.3028    2.6758   -2.2396 C.3     1  UNL1        0.0983
     22 O           1.8142    3.8619   -2.8704 O.3     1  UNL1       -0.4641
     23 C           1.0491    4.7365   -3.5175 C.2     1  UNL1        0.3074
     24 O           1.5893    5.6613   -4.1119 O.2     1  UNL1       -0.2508
     25 C          -0.4541    4.6476   -3.5499 C.3     1  UNL1        0.0484
     26 C          -0.1734    3.9956   -0.7358 C.3     1  UNL1       -0.0559
     27 H          -1.8628   -0.8812    0.7400 H       1  UNL1        0.0236
     28 H          -1.6583   -0.6523    2.4933 H       1  UNL1        0.0236
     29 H          -3.2819   -0.5702    1.7684 H       1  UNL1        0.0236
     30 H          -0.0376    1.0709    2.1217 H       1  UNL1        0.0272
     31 H          -0.4727    2.6343    1.4278 H       1  UNL1        0.0272
     32 H           0.0904    0.0002   -0.0010 H       1  UNL1        0.0268
     33 H           1.0955    1.4435   -0.0236 H       1  UNL1        0.0268
     34 H          -2.7054    3.8118   -0.1832 H       1  UNL1        0.0269
     35 H          -4.3272    3.2256    0.2482 H       1  UNL1        0.0269
     36 H          -2.0864    3.9952    2.0493 H       1  UNL1        0.0293
     37 H          -3.8296    3.8278    2.4072 H       1  UNL1        0.0293
     38 H          -2.2636    2.6995    4.5256 H       1  UNL1        0.0257
     39 H          -1.5965    1.0890    4.1657 H       1  UNL1        0.0257
     40 H          -0.8431    2.5413    3.4647 H       1  UNL1        0.0257
     41 H          -4.4399    1.8713    3.5922 H       1  UNL1        0.2102
     42 H          -4.0063    2.0929   -2.0228 H       1  UNL1        0.0268
     43 H          -2.8887    1.3414   -3.1732 H       1  UNL1        0.0268
     44 H          -2.6135    4.1142   -1.9208 H       1  UNL1        0.0268
     45 H          -2.9637    3.7181   -3.6064 H       1  UNL1        0.0268
     46 H           1.9109    2.4185   -1.3707 H       1  UNL1        0.0703
     47 H           1.3189    1.8364   -2.9401 H       1  UNL1        0.0703
     48 H          -0.7946    4.7735   -4.5882 H       1  UNL1        0.0380
     49 H          -0.8895    5.4597   -2.9629 H       1  UNL1        0.0380
     50 H           0.3549    3.6616    0.1572 H       1  UNL1        0.0236
     51 H           0.3172    4.8820   -1.1379 H       1  UNL1        0.0236
     52 H          -1.2050    4.2362   -0.4791 H       1  UNL1        0.0236
@<TRIPOS>BOND
     1     1     2    1
     2     1    27    1
     3     1    28    1
     4     1    29    1
     5     2     9    1
     6     2    13    1
     7     2     3    1
     8     3     4    1
     9     3    30    1
    10     3    31    1
    11     4     5    1
    12     4    32    1
    13     4    33    1
    14     5     6    1
    15     5    20    1
    16     5     7    1
    17     7     8    1
    18     7     9    1
    19     7    16    1
    20     9    10    1
    21     9    11    1
    22    11    12    1
    23    11    34    1
    24    11    35    1
    25    12    13    1
    26    12    36    1
    27    12    37    1
    28    13    14    1
    29    13    15    1
    30    14    38    1
    31    14    39    1
    32    14    40    1
    33    15    41    1
    34    16    17    1
    35    16    42    1
    36    16    43    1
    37    17    18    1
    38    17    44    1
    39    17    45    1
    40    18    19    1
    41    18    25    1
    42    18    20    1
    43    20    21    1
    44    20    26    1
    45    21    22    1
    46    21    46    1
    47    21    47    1
    48    22    23    1
    49    23    24    2
    50    23    25    1
    51    25    48    1
    52    25    49    1
    53    26    50    1
    54    26    51    1
    55    26    52    1
