@<TRIPOS>MOLECULE
ZINC11616774
 49 52 0 0 0
SMALL
GASTEIGER

@<TRIPOS>ATOM
      1 C           0.9649   -4.3387   -0.4372 C.ar    1  UNL1       -0.0493
      2 C          -0.1339   -5.0371    0.0245 C.ar    1  UNL1       -0.0197
      3 C          -0.6281   -4.7884    1.2967 C.ar    1  UNL1        0.1169
      4 C          -0.0134   -3.8427    2.1044 C.ar    1  UNL1       -0.0197
      5 C           1.0889   -3.1513    1.6404 C.ar    1  UNL1       -0.0493
      6 C           1.5793   -3.4008    0.3719 C.ar    1  UNL1        0.0093
      7 CA          2.7816   -2.6447   -0.1319 C.3     1  UNL1        0.0789
      8 HA          3.3312   -2.2311    0.7136 H       1  UNL1        0.1002
      9 C           2.3293   -1.5249   -1.0333 C.2     1  UNL1        0.2665
     10 O           2.3776   -1.6588   -2.2377 O.2     1  UNL1       -0.2692
     11 N           1.8711   -0.3746   -0.5010 N.am    1  UNL1       -0.2968
     12 CA          1.4314    0.7140   -1.3773 C.3     1  UNL1        0.1285
     13 HA          1.9319    0.7127   -2.3455 H       1  UNL1        0.0622
     14 C           1.3925    2.0694   -0.7072 C.3     1  UNL1        0.1041
     15 H           1.7257    2.8995   -1.3300 H       1  UNL1        0.0644
     16 N          -0.0779    1.8905   -0.6215 N.am    1  UNL1       -0.2533
     17 C          -0.0624    0.8652   -1.4617 C.2     1  UNL1        0.2438
     18 O          -0.9279    0.2719   -2.0699 O.2     1  UNL1       -0.2731
     19 CA         -0.9668    2.5646    0.2359 C.2     1  UNL1        0.0607
     20 C          -0.5130    3.2043    1.3025 C.2     1  UNL1       -0.0264
     21 C           0.9036    3.3730    1.7471 C.3     1  UNL1        0.0195
     22 S           1.9977    2.1170    1.0145 S.3     1  UNL1       -0.1311
     23 C          -1.5582    3.8438    2.1798 C.3     1  UNL1        0.0237
     24 S          -1.5992    5.6302    1.8676 S.3     1  UNL1       -0.0982
     25 C          -2.8528    6.2242    2.9540 C.ar    1  UNL1        0.1387
     26 C          -3.2626    7.5128    3.0939 C.ar    1  UNL1        0.0828
     27 N          -4.2337    7.5592    4.0054 N.ar    1  UNL1       -0.1621
     28 N          -4.4606    6.3794    4.4678 N.ar    1  UNL1       -0.1957
     29 N          -3.6008    5.4811    3.8181 N.ar    1  UNL1       -0.1485
     30 H          -5.1335    6.1439    5.1690 H       1  UNL1        0.2125
     31 C          -2.4118    2.5586   -0.0552 C.2     1  UNL1        0.0860
     32 O          -2.9459    1.5447   -0.4592 O.co2   1  UNL1       -0.5433
     33 O          -1.7129   -5.4695    1.7507 O.3     1  UNL1       -0.5068
     34 H           1.3470   -4.5283   -1.4294 H       1  UNL1        0.0623
     35 H          -0.6110   -5.7726   -0.6064 H       1  UNL1        0.0654
     36 H          -0.3964   -3.6470    3.0951 H       1  UNL1        0.0654
     37 H           1.5678   -2.4151    2.2689 H       1  UNL1        0.0623
     38 H           1.8324   -0.2675    0.4623 H       1  UNL1        0.1497
     39 H           0.9468    3.2914    2.8332 H       1  UNL1        0.0423
     40 H           1.2517    4.3628    1.4517 H       1  UNL1        0.0423
     41 H          -2.5340    3.4132    1.9552 H       1  UNL1        0.0427
     42 H          -1.3137    3.6634    3.2266 H       1  UNL1        0.0427
     43 H          -2.8661    8.3603    2.5545 H       1  UNL1        0.0875
     44 H1          4.0221   -4.2806   -0.2852 H       1  UNL1        0.2005
     45 H2          3.1669   -3.9536   -1.6736 H       1  UNL1        0.2005
     46 H          -2.5571   -5.0412    1.5535 H       1  UNL1        0.2921
     47 OXT        -3.1406    3.6776    0.1269 O.co2   1  UNL1       -0.5433
     48 N           3.6718   -3.5405   -0.8912 N.4     1  UNL1        0.2307
     49 H3          4.4660   -2.9997   -1.2531 H       1  UNL1        0.2005
@<TRIPOS>UNITY_ATOM_ATTR
47 1
charge -1
48 1
charge 1
@<TRIPOS>BOND
     1     1     6   ar
     2     1     2   ar
     3     1    34    1
     4     2     3   ar
     5     2    35    1
     6     3     4   ar
     7     3    33    1
     8     4     5   ar
     9     4    36    1
    10     5     6   ar
    11     5    37    1
    12     6     7    1
    13     7     8    1
    14     7     9    1
    15     7    48    1
    16     9    10    2
    17     9    11   am
    18    11    12    1
    19    11    38    1
    20    12    13    1
    21    12    17    1
    22    12    14    1
    23    14    15    1
    24    14    22    1
    25    14    16    1
    26    16    17   am
    27    16    19    1
    28    17    18    2
    29    19    20    2
    30    19    31    1
    31    20    21    1
    32    20    23    1
    33    21    22    1
    34    21    39    1
    35    21    40    1
    36    23    24    1
    37    23    41    1
    38    23    42    1
    39    24    25    1
    40    25    26   ar
    41    25    29   ar
    42    26    43    1
    43    26    27   ar
    44    27    28   ar
    45    28    30    1
    46    28    29   ar
    47    31    32   ar
    48    31    47   ar
    49    33    46    1
    50    44    48    1
    51    45    48    1
    52    48    49    1
