@<TRIPOS>MOLECULE
ZINC03830652
 54 57 0 0 0
SMALL
GASTEIGER

@<TRIPOS>ATOM
      1 C          -0.1619    5.4387   -4.8624 C.3     1  UNL1       -0.0427
      2 C           1.7391    4.9831   -3.4337 C.3     1  UNL1       -0.0427
      3 C          -0.3165    5.8346   -2.4787 C.3     1  UNL1        0.0441
      4 H          -0.1292    6.8817   -2.7166 H       1  UNL1        0.0939
      5 C           0.3476    5.5041   -1.1563 C.3     1  UNL1        0.0531
      6 H           1.3656    5.8930   -1.1806 H       1  UNL1        0.0397
      7 C           0.4197    3.9988   -0.9142 C.3     1  UNL1       -0.0314
      8 C           1.3908    3.7505    0.2432 C.3     1  UNL1        0.0218
      9 H           2.4006    3.9820   -0.0956 H       1  UNL1        0.0380
     10 C           1.3297    2.2822    0.6583 C.3     1  UNL1        0.0893
     11 H           1.6802    1.6608   -0.1658 H       1  UNL1        0.0650
     12 C           2.1997    2.0480    1.8652 C.ar    1  UNL1        0.0141
     13 C           2.8921    0.8621    2.0000 C.ar    1  UNL1        0.0475
     14 C           3.6842    0.6399    3.1156 C.ar    1  UNL1       -0.0396
     15 C           3.7878    1.5998    4.1032 C.ar    1  UNL1       -0.0181
     16 C           3.1011    2.7988    3.9815 C.ar    1  UNL1        0.1281
     17 C           2.3064    3.0290    2.8520 C.ar    1  UNL1        0.0704
     18 C           1.5961    4.3130    2.6874 C.2     1  UNL1        0.1967
     19 O           1.4793    5.0815    3.6251 O.2     1  UNL1       -0.2867
     20 C           1.0495    4.6376    1.4102 C.2     1  UNL1        0.0463
     21 C           0.2552    5.7067    1.3062 C.2     1  UNL1        0.1408
     22 C          -0.3721    6.1681    0.0183 C.3     1  UNL1        0.1935
     23 C          -1.8134    5.6951    0.0139 C.2     1  UNL1        0.2108
     24 O          -2.3840    5.4419    1.0549 O.2     1  UNL1       -0.2882
     25 C          -2.5027    5.5498   -1.2674 C.2     1  UNL1        0.1248
     26 C          -1.7971    5.6010   -2.4436 C.2     1  UNL1        0.1579
     27 O          -2.4546    5.4370   -3.6011 O.2     1  UNL1       -0.5050
     28 C          -3.9601    5.3482   -1.2960 C.2     1  UNL1        0.2485
     29 O          -4.7082    6.3018   -1.1932 O.2     1  UNL1       -0.2702
     30 N          -4.4661    4.1069   -1.4361 N.am    1  UNL1       -0.3252
     31 O          -0.3125    7.5911   -0.0981 O.3     1  UNL1       -0.3731
     32 O          -0.0003    6.4158    2.4238 O.2     1  UNL1       -0.5073
     33 O           3.1994    3.7431    4.9510 O.3     1  UNL1       -0.5060
     34 CL          2.7713   -0.3552    0.7682 Cl      1  UNL1       -0.0832
     35 O          -0.0202    1.9346    0.9728 O.3     1  UNL1       -0.3865
     36 H          -0.0092    6.5139   -4.9559 H       1  UNL1        0.0778
     37 H           0.4198    4.9213   -5.6253 H       1  UNL1        0.0778
     38 H          -1.2193    5.2091   -4.9939 H       1  UNL1        0.0778
     39 H           2.0352    4.5855   -2.4629 H       1  UNL1        0.0778
     40 H           2.1501    4.3552   -4.2242 H       1  UNL1        0.0778
     41 H           2.1196    5.9988   -3.5417 H       1  UNL1        0.0778
     42 H           0.7816    3.4983   -1.8124 H       1  UNL1        0.0278
     43 H          -0.5685    3.6200   -0.6535 H       1  UNL1        0.0278
     44 H           4.2244   -0.2902    3.2130 H       1  UNL1        0.0633
     45 H           4.4037    1.4166    4.9713 H       1  UNL1        0.0655
     46 H          -3.4263    5.2921   -3.4148 H       1  UNL1        0.2919
     47 H          -3.8728    3.3395   -1.4451 H       1  UNL1        0.1453
     48 H          -5.4235    3.9808   -1.5279 H       1  UNL1        0.1453
     49 H          -0.7537    8.0634    0.6212 H       1  UNL1        0.2113
     50 H          -0.6033    7.1820    2.2018 H       1  UNL1        0.2918
     51 H           3.9216    4.3719    4.8159 H       1  UNL1        0.2922
     52 H          -0.1376    1.0114    1.2356 H       1  UNL1        0.2103
     53 N           0.2641    4.9694   -3.5271 N.4     1  UNL1        0.2388
     54 H          -0.0699    4.0084   -3.3891 H       1  UNL1        0.2035
@<TRIPOS>UNITY_ATOM_ATTR
53 1
charge 1
@<TRIPOS>BOND
     1     1    36    1
     2     1    37    1
     3     1    38    1
     4     1    53    1
     5     2    39    1
     6     2    40    1
     7     2    41    1
     8     2    53    1
     9     3     4    1
    10     3    26    1
    11     3     5    1
    12     3    53    1
    13     5     6    1
    14     5    22    1
    15     5     7    1
    16     7     8    1
    17     7    42    1
    18     7    43    1
    19     8     9    1
    20     8    20    1
    21     8    10    1
    22    10    11    1
    23    10    12    1
    24    10    35    1
    25    12    17   ar
    26    12    13   ar
    27    13    14   ar
    28    13    34    1
    29    14    15   ar
    30    14    44    1
    31    15    16   ar
    32    15    45    1
    33    16    17   ar
    34    16    33    1
    35    17    18    1
    36    18    19    2
    37    18    20    1
    38    20    21    2
    39    21    22    1
    40    21    32    1
    41    22    23    1
    42    22    31    1
    43    23    24    2
    44    23    25    1
    45    25    26    2
    46    25    28    1
    47    26    27    1
    48    27    46    1
    49    28    29    2
    50    28    30   am
    51    30    47    1
    52    30    48    1
    53    31    49    1
    54    32    50    1
    55    33    51    1
    56    35    52    1
    57    53    54    1
