@<TRIPOS>MOLECULE
ZINC15848247
 50 53 0 0 0
SMALL
GASTEIGER

@<TRIPOS>ATOM
      1 C           3.6235   -0.4363    4.1509 C.3     1  UNL1       -0.0558
      2 C           4.4540   -1.5583    3.5247 C.3     1  UNL1        0.0111
      3 C           5.3704   -0.9898    2.4557 C.3     1  UNL1       -0.0435
      4 C           4.4820   -0.2061    1.4804 C.3     1  UNL1       -0.0488
      5 C           3.3781   -1.0711    0.8738 C.3     1  UNL1       -0.0314
      6 H           3.8285   -1.7981    0.1980 H       1  UNL1        0.0309
      7 C           2.5675   -1.8146    1.9361 C.3     1  UNL1       -0.0339
      8 H           2.0371   -1.0926    2.5570 H       1  UNL1        0.0307
      9 C           3.5411   -2.6021    2.7985 C.3     1  UNL1       -0.0289
     10 H           4.1267   -3.2830    2.1809 H       1  UNL1        0.0310
     11 C           2.9082   -3.3199    4.0077 C.3     1  UNL1       -0.0458
     12 C           4.1071   -3.4928    4.9798 C.3     1  UNL1       -0.0118
     13 C           5.1254   -2.3826    4.6195 C.3     1  UNL1        0.1317
     14 C           6.3732   -2.9792    4.1158 C.1     1  UNL1       -0.0704
     15 C           7.3685   -3.4550    3.7141 C.1     1  UNL1       -0.1163
     16 O           5.3917   -1.5656    5.7613 O.3     1  UNL1       -0.3760
     17 C           1.5647   -2.7842    1.3191 C.3     1  UNL1       -0.0460
     18 C           0.9688   -2.2476    0.0231 C.3     1  UNL1       -0.0311
     19 C           1.0684   -0.7397    0.0271 C.2     1  UNL1       -0.0677
     20 C           0.0021   -0.0041    0.0020 C.2     1  UNL1       -0.0564
     21 C          -0.0182    1.4883    0.0102 C.3     1  UNL1        0.0736
     22 H          -0.5616    1.8365   -0.8682 H       1  UNL1        0.0638
     23 C           1.3731    2.1023    0.0002 C.3     1  UNL1       -0.0227
     24 C           2.3601    1.2260    0.7723 C.3     1  UNL1       -0.0436
     25 C           2.4485   -0.1344    0.0761 C.3     1  UNL1       -0.0166
     26 H           2.8334   -0.0161   -0.9368 H       1  UNL1        0.0348
     27 O          -0.7084    1.9323    1.1800 O.3     1  UNL1       -0.3878
     28 H           3.0117    0.0354    3.3819 H       1  UNL1        0.0236
     29 H           2.9780   -0.8508    4.9252 H       1  UNL1        0.0236
     30 H           4.2891    0.3059    4.5916 H       1  UNL1        0.0236
     31 H           5.8767   -1.7994    1.9300 H       1  UNL1        0.0272
     32 H           6.1047   -0.3235    2.9084 H       1  UNL1        0.0272
     33 H           5.1032    0.1884    0.6763 H       1  UNL1        0.0268
     34 H           4.0245    0.6272    2.0137 H       1  UNL1        0.0268
     35 H           2.5164   -4.2900    3.7021 H       1  UNL1        0.0269
     36 H           2.1248   -2.7157    4.4652 H       1  UNL1        0.0269
     37 H           4.5604   -4.4747    4.8438 H       1  UNL1        0.0303
     38 H           3.7739   -3.3745    6.0108 H       1  UNL1        0.0303
     39 H           8.2586   -3.8805    3.3549 H       1  UNL1        0.1229
     40 H           5.8185   -2.0360    6.4905 H       1  UNL1        0.2114
     41 H           0.7595   -2.9617    2.0319 H       1  UNL1        0.0271
     42 H           2.0686   -3.7284    1.1125 H       1  UNL1        0.0271
     43 H          -0.0777   -2.5443   -0.0479 H       1  UNL1        0.0310
     44 H           1.5221   -2.6479   -0.8265 H       1  UNL1        0.0310
     45 H          -0.9503   -0.5125   -0.0276 H       1  UNL1        0.0597
     46 H           1.7133    2.2027   -1.0304 H       1  UNL1        0.0293
     47 H           1.3328    3.0891    0.4615 H       1  UNL1        0.0293
     48 H           2.0084    1.0918    1.7953 H       1  UNL1        0.0272
     49 H           3.3429    1.6972    0.7818 H       1  UNL1        0.0272
     50 H          -1.6245    1.6279    1.2355 H       1  UNL1        0.2102
@<TRIPOS>BOND
     1     1     2    1
     2     1    28    1
     3     1    29    1
     4     1    30    1
     5     2     9    1
     6     2    13    1
     7     2     3    1
     8     3     4    1
     9     3    31    1
    10     3    32    1
    11     4     5    1
    12     4    33    1
    13     4    34    1
    14     5     6    1
    15     5    25    1
    16     5     7    1
    17     7     8    1
    18     7     9    1
    19     7    17    1
    20     9    10    1
    21     9    11    1
    22    11    12    1
    23    11    35    1
    24    11    36    1
    25    12    13    1
    26    12    37    1
    27    12    38    1
    28    13    14    1
    29    13    16    1
    30    14    15    3
    31    15    39    1
    32    16    40    1
    33    17    18    1
    34    17    41    1
    35    17    42    1
    36    18    19    1
    37    18    43    1
    38    18    44    1
    39    19    25    1
    40    19    20    2
    41    20    21    1
    42    20    45    1
    43    21    22    1
    44    21    23    1
    45    21    27    1
    46    23    24    1
    47    23    46    1
    48    23    47    1
    49    24    25    1
    50    24    48    1
    51    24    49    1
    52    25    26    1
    53    27    50    1
