@<TRIPOS>MOLECULE
ZINC00895218
 15 14 0 0 0
SMALL
GASTEIGER

@<TRIPOS>ATOM
      1 CB          1.2350    3.0943    0.0069 C.3     1  ASP1        0.0353
      2 CA          2.6961    3.5480   -0.0046 C.3     1  ASP1        0.0212
      3 HA          3.2259    3.0883    0.8297 H       1  ASP1        0.0918
      4 C           2.7573    5.0480    0.1267 C.2     1  ASP1        0.0897
      5 O           2.9269    5.7339   -0.8535 O.co2   1  ASP1       -0.5442
      6 CG          1.1765    1.5884   -0.0006 C.2     1  ASP1        0.0475
      7 OD1         2.1986    0.9442   -0.0139 O.co2   1  ASP1       -0.5496
      8 HB1         0.7272    3.4820   -0.8762 H       1  ASP1        0.0384
      9 HB2         0.7441    3.4725    0.9036 H       1  ASP1        0.0384
     10 H1          2.8519    3.5544   -2.0575 H       1  ASP1        0.2001
     11 H2          4.3075    3.3721   -1.2739 H       1  ASP1        0.2001
     12 OXT         2.6235    5.6222    1.3326 O.co2   1  ASP1       -0.5442
     13 N           3.3216    3.1160   -1.2670 N.4     1  ASP1        0.2252
     14 H3          3.2398    2.0960   -1.3524 H       1  ASP1        0.2001
     15 OD2        -0.0110    0.9628    0.0073 O.co2   1  ASP1       -0.5496
@<TRIPOS>UNITY_ATOM_ATTR
12 1
charge -1
13 1
charge 1
15 1
charge -1
@<TRIPOS>BOND
     1     1     2    1
     2     1     6    1
     3     1     8    1
     4     1     9    1
     5     2     3    1
     6     2     4    1
     7     2    13    1
     8     4     5   ar
     9     4    12   ar
    10     6     7   ar
    11     6    15   ar
    12    10    13    1
    13    11    13    1
    14    13    14    1
