@<TRIPOS>MOLECULE
ZINC03830568
 22 23 0 0 0
SMALL
GASTEIGER

@<TRIPOS>ATOM
      1 C          -0.9749    1.6928    1.0259 C.3     1  UNL1        0.0786
      2 C          -0.0127    1.0858    0.0080 C.3     1  UNL1        0.1783
      3 H           0.0021   -0.0041    0.0020 H       1  UNL1        0.0957
      4 N          -0.7791    1.6910   -1.0952 N.am    1  UNL1       -0.2502
      5 C          -1.6704    2.1840   -0.2125 C.2     1  UNL1        0.2243
      6 O          -2.6949    2.8146   -0.3665 O.2     1  UNL1       -0.2753
      7 C           0.1708    2.6366   -1.7308 C.3     1  UNL1        0.1257
      8 H          -0.3350    3.5579   -2.0199 H       1  UNL1        0.0645
      9 C           1.1738    2.8974   -0.6119 C.2     1  UNL1        0.1246
     10 C           1.7787    4.0265   -0.3056 C.2     1  UNL1       -0.0190
     11 C           2.7455    4.0741    0.8495 C.3     1  UNL1        0.0658
     12 O           3.9182    4.7917    0.4598 O.3     1  UNL1       -0.3909
     13 O           1.2961    1.6752   -0.0013 O.2     1  UNL1       -0.4725
     14 C           0.8465    1.9999   -2.9178 C.2     1  UNL1        0.0698
     15 O           0.5080    0.9006   -3.2878 O.co2   1  UNL1       -0.5474
     16 H          -1.5433    0.9607    1.5995 H       1  UNL1        0.0412
     17 H          -0.5408    2.4818    1.6401 H       1  UNL1        0.0412
     18 H           1.5819    4.9183   -0.8821 H       1  UNL1        0.0628
     19 H           2.2764    4.5764    1.6955 H       1  UNL1        0.0602
     20 H           3.0193    3.0587    1.1361 H       1  UNL1        0.0602
     21 H           4.5858    4.8619    1.1559 H       1  UNL1        0.2098
     22 O           1.8244    2.6539   -3.5641 O.co2   1  UNL1       -0.5474
@<TRIPOS>UNITY_ATOM_ATTR
22 1
charge -1
@<TRIPOS>BOND
     1     1     5    1
     2     1     2    1
     3     1    16    1
     4     1    17    1
     5     2     3    1
     6     2    13    1
     7     2     4    1
     8     4     5   am
     9     4     7    1
    10     5     6    2
    11     7     8    1
    12     7     9    1
    13     7    14    1
    14     9    10    2
    15     9    13    1
    16    10    11    1
    17    10    18    1
    18    11    12    1
    19    11    19    1
    20    11    20    1
    21    12    21    1
    22    14    15   ar
    23    14    22   ar
