@<TRIPOS>MOLECULE
ZINC00896681
 44 46 0 0 0
SMALL
GASTEIGER

@<TRIPOS>ATOM
      1 C           0.8916    3.3629   -3.0844 C.3     1  UNL1       -0.0561
      2 C           0.5269    4.5878   -2.2433 C.3     1  UNL1        0.0124
      3 H           1.4377    5.1006   -1.9343 H       1  UNL1        0.0365
      4 C          -0.2528    4.1422   -1.0046 C.3     1  UNL1        0.0247
      5 N           0.6178    3.3393   -0.1423 N.pl3   1  UNL1       -0.2979
      6 C           0.5859    1.9451   -0.2534 C.ar    1  UNL1        0.0479
      7 C          -0.6130    1.2890   -0.4843 C.ar    1  UNL1       -0.0393
      8 C          -0.6373   -0.0909   -0.5887 C.ar    1  UNL1       -0.0599
      9 C           0.5283   -0.8228   -0.4655 C.ar    1  UNL1       -0.0606
     10 C           1.7326   -0.1772   -0.2371 C.ar    1  UNL1       -0.0462
     11 C           1.7617    1.2001   -0.1311 C.ar    1  UNL1        0.0341
     12 S           3.2807    2.0517    0.1612 S.3     1  UNL1       -0.0857
     13 C           2.7420    3.4987    1.0184 C.ar    1  UNL1        0.0341
     14 C           1.4573    3.9884    0.7694 C.ar    1  UNL1        0.0479
     15 C           1.0217    5.1230    1.4360 C.ar    1  UNL1       -0.0393
     16 C           1.8573    5.7588    2.3378 C.ar    1  UNL1       -0.0599
     17 C           3.1270    5.2702    2.5801 C.ar    1  UNL1       -0.0606
     18 C           3.5726    4.1369    1.9194 C.ar    1  UNL1       -0.0462
     19 C          -0.3366    5.5386   -3.0748 C.3     1  UNL1       -0.0283
     20 C           0.6112    7.6314   -2.3102 C.3     1  UNL1       -0.0433
     21 C          -1.7479    7.4917   -2.8376 C.3     1  UNL1       -0.0433
     22 H          -0.0196    2.8829   -3.4414 H       1  UNL1        0.0235
     23 H           1.4961    3.6740   -3.9363 H       1  UNL1        0.0235
     24 H           1.4581    2.6590   -2.4746 H       1  UNL1        0.0235
     25 H          -1.1114    3.5448   -1.3113 H       1  UNL1        0.0472
     26 H          -0.5974    5.0195   -0.4572 H       1  UNL1        0.0472
     27 H          -1.5272    1.8546   -0.5871 H       1  UNL1        0.0636
     28 H          -1.5733   -0.5989   -0.7681 H       1  UNL1        0.0618
     29 H           0.5005   -1.8993   -0.5477 H       1  UNL1        0.0618
     30 H           2.6447   -0.7479   -0.1426 H       1  UNL1        0.0629
     31 H           0.0308    5.5109    1.2515 H       1  UNL1        0.0636
     32 H           1.5147    6.6423    2.8557 H       1  UNL1        0.0618
     33 H           3.7726    5.7722    3.2855 H       1  UNL1        0.0618
     34 H           4.5646    3.7539    2.1081 H       1  UNL1        0.0629
     35 H           0.1804    5.7808   -4.0033 H       1  UNL1        0.0817
     36 H          -1.2884    5.0590   -3.3033 H       1  UNL1        0.0817
     37 H           0.8272    7.9570   -3.3278 H       1  UNL1        0.0777
     38 H           0.4284    8.5025   -1.6811 H       1  UNL1        0.0777
     39 H           1.4616    7.0729   -1.9192 H       1  UNL1        0.0777
     40 H          -2.6300    6.8557   -2.7639 H       1  UNL1        0.0777
     41 H          -1.9053    8.4002   -2.2562 H       1  UNL1        0.0777
     42 H          -1.5751    7.7537   -3.8814 H       1  UNL1        0.0777
     43 N          -0.5854    6.7639   -2.2865 N.4     1  UNL1        0.2311
     44 H          -0.7870    6.5002   -1.3149 H       1  UNL1        0.2028
@<TRIPOS>UNITY_ATOM_ATTR
43 1
charge 1
@<TRIPOS>BOND
     1     1     2    1
     2     1    22    1
     3     1    23    1
     4     1    24    1
     5     2     3    1
     6     2     4    1
     7     2    19    1
     8     4     5    1
     9     4    25    1
    10     4    26    1
    11     5    14    1
    12     5     6    1
    13     6    11   ar
    14     6     7   ar
    15     7     8   ar
    16     7    27    1
    17     8     9   ar
    18     8    28    1
    19     9    10   ar
    20     9    29    1
    21    10    11   ar
    22    10    30    1
    23    11    12    1
    24    12    13    1
    25    13    18   ar
    26    13    14   ar
    27    14    15   ar
    28    15    16   ar
    29    15    31    1
    30    16    17   ar
    31    16    32    1
    32    17    18   ar
    33    17    33    1
    34    18    34    1
    35    19    35    1
    36    19    36    1
    37    19    43    1
    38    20    37    1
    39    20    38    1
    40    20    39    1
    41    20    43    1
    42    21    40    1
    43    21    41    1
    44    21    42    1
    45    21    43    1
    46    43    44    1
