@<TRIPOS>MOLECULE
ZINC01886617
 55 57 0 0 0
SMALL
GASTEIGER

@<TRIPOS>ATOM
      1 C           0.0681    0.5265   -0.0369 C.3     1  UNL1       -0.0445
      2 C          -0.6488    1.2604    1.0981 C.3     1  UNL1        0.0295
      3 C          -0.5891    2.7686    0.8482 C.3     1  UNL1       -0.0445
      4 N           0.0065    0.9499    2.3710 N.ar    1  UNL1       -0.3372
      5 C           1.3257    1.2205    2.6664 C.ar    1  UNL1        0.0503
      6 C           2.3568    1.8103    1.9408 C.ar    1  UNL1       -0.0376
      7 C           3.6030    1.9513    2.5112 C.ar    1  UNL1       -0.0598
      8 C           3.8430    1.5110    3.8055 C.ar    1  UNL1       -0.0611
      9 C           2.8452    0.9292    4.5358 C.ar    1  UNL1       -0.0520
     10 C           1.5752    0.7761    3.9769 C.ar    1  UNL1        0.0082
     11 C           0.3118    0.2103    4.4701 C.ar    1  UNL1        0.0147
     12 C          -0.6065    0.3513    3.4475 C.ar    1  UNL1        0.0507
     13 C          -2.0117   -0.0730    3.4999 C.2     1  UNL1       -0.0391
     14 C          -2.3148   -1.3388    3.7796 C.2     1  UNL1       -0.0539
     15 C          -3.7475   -1.8019    3.7177 C.3     1  UNL1        0.0761
     16 H          -4.0802   -2.0884    4.7154 H       1  UNL1        0.0638
     17 C          -3.8543   -3.0056    2.7793 C.3     1  UNL1        0.0032
     18 C          -5.2827   -3.5529    2.8123 C.3     1  UNL1        0.0629
     19 H          -5.5617   -3.7782    3.8416 H       1  UNL1        0.0598
     20 C          -5.3593   -4.8292    1.9721 C.3     1  UNL1        0.0130
     21 C          -6.7328   -5.4354    2.1034 C.2     1  UNL1        0.0442
     22 O          -7.5649   -4.9013    2.7978 O.co2   1  UNL1       -0.5497
     23 O          -6.1793   -2.5766    2.2785 O.3     1  UNL1       -0.3913
     24 O          -4.5702   -0.7413    3.2275 O.3     1  UNL1       -0.3877
     25 C           0.0692   -0.3865    5.8020 C.ar    1  UNL1       -0.0151
     26 C          -0.7936    0.2390    6.7031 C.ar    1  UNL1       -0.0512
     27 C          -1.0200   -0.3242    7.9417 C.ar    1  UNL1       -0.0259
     28 C          -0.3843   -1.5035    8.2959 C.ar    1  UNL1        0.1234
     29 C           0.4774   -2.1260    7.4070 C.ar    1  UNL1       -0.0259
     30 C           0.7068   -1.5741    6.1639 C.ar    1  UNL1       -0.0512
     31 F          -0.6058   -2.0485    9.5121 F       1  UNL1       -0.2055
     32 H           0.0255   -0.5480    0.1411 H       1  UNL1        0.0249
     33 H           1.1091    0.8473   -0.0765 H       1  UNL1        0.0249
     34 H          -0.4195    0.7575   -0.9840 H       1  UNL1        0.0249
     35 H          -1.6898    0.9396    1.1377 H       1  UNL1        0.0522
     36 H          -1.0767    2.9996   -0.0989 H       1  UNL1        0.0249
     37 H          -1.0999    3.2914    1.6569 H       1  UNL1        0.0249
     38 H           0.4519    3.0894    0.8086 H       1  UNL1        0.0249
     39 H           2.1803    2.1569    0.9333 H       1  UNL1        0.0638
     40 H           4.4010    2.4094    1.9457 H       1  UNL1        0.0618
     41 H           4.8253    1.6295    4.2386 H       1  UNL1        0.0618
     42 H           3.0385    0.5891    5.5424 H       1  UNL1        0.0624
     43 H          -2.7991    0.6418    3.3114 H       1  UNL1        0.0636
     44 H          -1.5339   -2.0337    4.0510 H       1  UNL1        0.0598
     45 H          -3.6067   -2.6974    1.7635 H       1  UNL1        0.0318
     46 H          -3.1604   -3.7813    3.1029 H       1  UNL1        0.0318
     47 H          -5.1670   -4.5881    0.9266 H       1  UNL1        0.0350
     48 H          -4.6128   -5.5413    2.3240 H       1  UNL1        0.0350
     49 H          -5.9903   -2.3276    1.3634 H       1  UNL1        0.2098
     50 H          -4.3308   -0.4349    2.3421 H       1  UNL1        0.2102
     51 H          -1.2864    1.1603    6.4296 H       1  UNL1        0.0624
     52 H          -1.6910    0.1567    8.6380 H       1  UNL1        0.0646
     53 H           0.9706   -3.0447    7.6883 H       1  UNL1        0.0646
     54 H           1.3789   -2.0598    5.4720 H       1  UNL1        0.0624
     55 O          -7.0317   -6.5686    1.4490 O.co2   1  UNL1       -0.5497
@<TRIPOS>UNITY_ATOM_ATTR
55 1
charge -1
@<TRIPOS>BOND
     1     1     2    1
     2     1    32    1
     3     1    33    1
     4     1    34    1
     5     2     3    1
     6     2     4    1
     7     2    35    1
     8     3    36    1
     9     3    37    1
    10     3    38    1
    11     4    12   ar
    12     4     5   ar
    13     5    10   ar
    14     5     6   ar
    15     6     7   ar
    16     6    39    1
    17     7     8   ar
    18     7    40    1
    19     8     9   ar
    20     8    41    1
    21     9    10   ar
    22     9    42    1
    23    10    11   ar
    24    11    12   ar
    25    11    25    1
    26    12    13    1
    27    13    14    2
    28    13    43    1
    29    14    15    1
    30    14    44    1
    31    15    16    1
    32    15    17    1
    33    15    24    1
    34    17    18    1
    35    17    45    1
    36    17    46    1
    37    18    19    1
    38    18    20    1
    39    18    23    1
    40    20    21    1
    41    20    47    1
    42    20    48    1
    43    21    22   ar
    44    21    55   ar
    45    23    49    1
    46    24    50    1
    47    25    30   ar
    48    25    26   ar
    49    26    27   ar
    50    26    51    1
    51    27    28   ar
    52    27    52    1
    53    28    29   ar
    54    28    31    1
    55    29    30   ar
    56    29    53    1
    57    30    54    1
