@<TRIPOS>MOLECULE
ZINC03831258
 49 52 0 0 0
SMALL
GASTEIGER

@<TRIPOS>ATOM
      1 C          -6.5069    3.7087   -6.5952 C.3     1  UNL1        0.0336
      2 C          -5.5529    3.8774   -5.4409 C.2     1  UNL1        0.3092
      3 O          -4.3652    3.9621   -5.6462 O.2     1  UNL1       -0.2507
      4 O          -6.0227    3.9335   -4.1844 O.3     1  UNL1       -0.4260
      5 C          -5.1041    3.9823   -3.1838 C.ar    1  UNL1        0.1316
      6 C          -4.8420    2.8506   -2.4254 C.ar    1  UNL1       -0.0189
      7 C          -3.9083    2.9029   -1.4086 C.ar    1  UNL1       -0.0535
      8 C          -3.2354    4.0819   -1.1463 C.ar    1  UNL1       -0.0235
      9 C          -3.4989    5.2127   -1.8971 C.ar    1  UNL1       -0.0535
     10 C          -4.4273    5.1640   -2.9189 C.ar    1  UNL1       -0.0189
     11 C          -2.2177    4.1363   -0.0362 C.3     1  UNL1        0.1236
     12 C          -1.1162    3.1300   -0.2779 C.ar    1  UNL1       -0.0026
     13 C          -1.1102    1.7582   -0.3940 C.ar    1  UNL1       -0.0552
     14 C           0.0808    1.0897   -0.6176 C.ar    1  UNL1       -0.0613
     15 C           1.2592    1.8042   -0.7346 C.ar    1  UNL1       -0.0600
     16 C           1.2551    3.1792   -0.6245 C.ar    1  UNL1       -0.0402
     17 C           0.0605    3.8590   -0.3941 C.ar    1  UNL1        0.0383
     18 N          -0.2000    5.2220   -0.2483 N.am    1  UNL1       -0.2839
     19 C          -1.5033    5.4711   -0.0364 C.2     1  UNL1        0.2366
     20 O          -2.0117    6.5603    0.1250 O.2     1  UNL1       -0.2738
     21 C          -2.8751    3.8894    1.2972 C.ar    1  UNL1       -0.0235
     22 C          -2.3467    2.9506    2.1639 C.ar    1  UNL1       -0.0535
     23 C          -2.9441    2.7265    3.3892 C.ar    1  UNL1       -0.0189
     24 C          -4.0821    3.4360    3.7447 C.ar    1  UNL1        0.1316
     25 C          -4.6136    4.3733    2.8710 C.ar    1  UNL1       -0.0189
     26 C          -4.0089    4.5981    1.6494 C.ar    1  UNL1       -0.0535
     27 O          -4.6755    3.2127    4.9470 O.3     1  UNL1       -0.4260
     28 C          -4.0770    3.7362    6.0288 C.2     1  UNL1        0.3092
     29 O          -3.1146    4.4550    5.8983 O.2     1  UNL1       -0.2507
     30 C          -4.6054    3.4273    7.4059 C.3     1  UNL1        0.0336
     31 H          -6.8232    4.6891   -6.9514 H       1  UNL1        0.0342
     32 H          -6.0089    3.1720   -7.4028 H       1  UNL1        0.0342
     33 H          -7.3786    3.1429   -6.2664 H       1  UNL1        0.0342
     34 H          -5.3674    1.9294   -2.6299 H       1  UNL1        0.0654
     35 H          -3.7040    2.0221   -0.8179 H       1  UNL1        0.0622
     36 H          -2.9755    6.1338   -1.6871 H       1  UNL1        0.0622
     37 H          -4.6298    6.0465   -3.5076 H       1  UNL1        0.0654
     38 H          -2.0331    1.2041   -0.3068 H       1  UNL1        0.0621
     39 H           0.0894    0.0133   -0.7049 H       1  UNL1        0.0618
     40 H           2.1879    1.2827   -0.9136 H       1  UNL1        0.0618
     41 H           2.1793    3.7301   -0.7174 H       1  UNL1        0.0636
     42 H           0.4815    5.9107   -0.2945 H       1  UNL1        0.1549
     43 H          -1.4638    2.3949    1.8845 H       1  UNL1        0.0622
     44 H          -2.5287    1.9960    4.0675 H       1  UNL1        0.0654
     45 H          -5.4992    4.9271    3.1457 H       1  UNL1        0.0654
     46 H          -4.4222    5.3277    0.9689 H       1  UNL1        0.0622
     47 H          -5.4699    2.7685    7.3240 H       1  UNL1        0.0342
     48 H          -3.8284    2.9360    7.9915 H       1  UNL1        0.0342
     49 H          -4.9002    4.3540    7.8983 H       1  UNL1        0.0342
@<TRIPOS>BOND
     1     1     2    1
     2     1    31    1
     3     1    32    1
     4     1    33    1
     5     2     3    2
     6     2     4    1
     7     4     5    1
     8     5    10   ar
     9     5     6   ar
    10     6     7   ar
    11     6    34    1
    12     7     8   ar
    13     7    35    1
    14     8     9   ar
    15     8    11    1
    16     9    10   ar
    17     9    36    1
    18    10    37    1
    19    11    19    1
    20    11    12    1
    21    11    21    1
    22    12    17   ar
    23    12    13   ar
    24    13    14   ar
    25    13    38    1
    26    14    15   ar
    27    14    39    1
    28    15    16   ar
    29    15    40    1
    30    16    17   ar
    31    16    41    1
    32    17    18    1
    33    18    19   am
    34    18    42    1
    35    19    20    2
    36    21    26   ar
    37    21    22   ar
    38    22    23   ar
    39    22    43    1
    40    23    24   ar
    41    23    44    1
    42    24    25   ar
    43    24    27    1
    44    25    26   ar
    45    25    45    1
    46    26    46    1
    47    27    28    1
    48    28    29    2
    49    28    30    1
    50    30    47    1
    51    30    48    1
    52    30    49    1
