@<TRIPOS>MOLECULE
ZINC04062829
 46 49 0 0 0
SMALL
GASTEIGER

@<TRIPOS>ATOM
      1 C          -3.1641    1.3528    0.5415 C.3     1  UNL1       -0.0569
      2 C          -1.9972    2.3268    0.7164 C.3     1  UNL1       -0.0030
      3 C          -2.4705    3.5385    1.4925 C.3     1  UNL1       -0.0447
      4 C          -3.6970    4.1009    0.7620 C.3     1  UNL1       -0.0488
      5 C          -3.3992    4.4486   -0.6958 C.3     1  UNL1       -0.0314
      6 H          -2.7295    5.3084   -0.7172 H       1  UNL1        0.0309
      7 C          -2.7473    3.2903   -1.4519 C.3     1  UNL1       -0.0340
      8 H          -3.4534    2.4631   -1.5244 H       1  UNL1        0.0307
      9 C          -1.5242    2.8418   -0.6680 C.3     1  UNL1       -0.0301
     10 H          -0.8290    3.6724   -0.5461 H       1  UNL1        0.0310
     11 C          -0.7937    1.6151   -1.2256 C.3     1  UNL1       -0.0470
     12 C          -0.0127    1.0858    0.0080 C.3     1  UNL1       -0.0261
     13 C          -0.7680    1.6004    1.2586 C.3     1  UNL1        0.0609
     14 H          -0.1393    2.2896    1.8224 H       1  UNL1        0.0599
     15 O          -1.1647    0.5031    2.0836 O.3     1  UNL1       -0.3912
     16 C          -2.3067    3.7033   -2.8521 C.3     1  UNL1       -0.0460
     17 C          -3.2452    4.7288   -3.4747 C.3     1  UNL1       -0.0308
     18 C          -4.6109    4.5990   -2.8460 C.2     1  UNL1       -0.0629
     19 C          -5.6715    4.2952   -3.5868 C.2     1  UNL1       -0.0197
     20 C          -6.9959    4.1551   -2.9845 C.2     1  UNL1        0.1561
     21 O          -7.9558    3.8997   -3.6813 O.2     1  UNL1       -0.2927
     22 C          -7.1685    4.3288   -1.4962 C.3     1  UNL1        0.0104
     23 C          -5.8564    3.9564   -0.7974 C.3     1  UNL1       -0.0392
     24 C          -4.7304    4.8247   -1.3618 C.3     1  UNL1       -0.0160
     25 H          -4.9493    5.8751   -1.1696 H       1  UNL1        0.0349
     26 H          -2.8429    0.5063   -0.0655 H       1  UNL1        0.0236
     27 H          -3.4895    0.9964    1.5188 H       1  UNL1        0.0236
     28 H          -3.9911    1.8618    0.0465 H       1  UNL1        0.0236
     29 H          -1.6770    4.2854    1.5177 H       1  UNL1        0.0271
     30 H          -2.7418    3.2493    2.5078 H       1  UNL1        0.0271
     31 H          -4.0331    5.0004    1.2777 H       1  UNL1        0.0268
     32 H          -4.4946    3.3587    0.7917 H       1  UNL1        0.0268
     33 H          -0.1076    1.9036   -2.0219 H       1  UNL1        0.0269
     34 H          -1.5061    0.8700   -1.5799 H       1  UNL1        0.0269
     35 H           0.0021   -0.0041    0.0020 H       1  UNL1        0.0290
     36 H           1.0060    1.4735    0.0004 H       1  UNL1        0.0290
     37 H          -0.4262   -0.0207    2.4234 H       1  UNL1        0.2098
     38 H          -1.3050    4.1294   -2.7959 H       1  UNL1        0.0271
     39 H          -2.2790    2.8192   -3.4889 H       1  UNL1        0.0271
     40 H          -2.8570    5.7319   -3.2983 H       1  UNL1        0.0310
     41 H          -3.3190    4.5505   -4.5475 H       1  UNL1        0.0310
     42 H          -5.5530    4.1494   -4.6503 H       1  UNL1        0.0652
     43 H          -7.9046    3.7334   -1.1743 H       1  UNL1        0.0345
     44 H          -7.4184    5.3663   -1.2746 H       1  UNL1        0.0345
     45 H          -5.6322    2.9052   -0.9781 H       1  UNL1        0.0275
     46 H          -5.9495    4.1308    0.2745 H       1  UNL1        0.0275
@<TRIPOS>BOND
     1     1     2    1
     2     1    26    1
     3     1    27    1
     4     1    28    1
     5     2     9    1
     6     2    13    1
     7     2     3    1
     8     3     4    1
     9     3    29    1
    10     3    30    1
    11     4     5    1
    12     4    31    1
    13     4    32    1
    14     5     6    1
    15     5    24    1
    16     5     7    1
    17     7     8    1
    18     7     9    1
    19     7    16    1
    20     9    10    1
    21     9    11    1
    22    11    12    1
    23    11    33    1
    24    11    34    1
    25    12    13    1
    26    12    35    1
    27    12    36    1
    28    13    14    1
    29    13    15    1
    30    15    37    1
    31    16    17    1
    32    16    38    1
    33    16    39    1
    34    17    18    1
    35    17    40    1
    36    17    41    1
    37    18    24    1
    38    18    19    2
    39    19    20    1
    40    19    42    1
    41    20    21    2
    42    20    22    1
    43    22    23    1
    44    22    43    1
    45    22    44    1
    46    23    24    1
    47    23    45    1
    48    23    46    1
    49    24    25    1
