@<TRIPOS>MOLECULE
ZINC08614190
 57 60 0 0 0
SMALL
GASTEIGER

@<TRIPOS>ATOM
      1 C           2.8747    5.9605    0.6095 C.3     1  UNL1       -0.0312
      2 C           2.1020    5.7484    1.9129 C.3     1  UNL1        0.0972
      3 C           2.0542    7.0426    2.6808 C.ar    1  UNL1        0.0168
      4 C           3.0009    7.3064    3.6496 C.ar    1  UNL1        0.0478
      5 C           2.9839    8.5123    4.3325 C.ar    1  UNL1       -0.0395
      6 C           2.0234    9.4634    4.0494 C.ar    1  UNL1       -0.0181
      7 C           1.0606    9.2116    3.0833 C.ar    1  UNL1        0.1281
      8 C           1.0642    7.9876    2.4045 C.ar    1  UNL1        0.0707
      9 C           0.0437    7.6978    1.3773 C.2     1  UNL1        0.1967
     10 O          -0.6865    8.5803    0.9633 O.2     1  UNL1       -0.2867
     11 C          -0.0724    6.3662    0.8785 C.2     1  UNL1        0.0466
     12 C          -0.8553    6.1421   -0.1795 C.2     1  UNL1        0.1409
     13 C          -1.0792    4.7846   -0.7895 C.3     1  UNL1        0.1935
     14 C          -0.6500    3.7104    0.2108 C.3     1  UNL1        0.0531
     15 H          -1.3213    3.7580    1.0682 H       1  UNL1        0.0397
     16 C           0.7565    4.0221    0.7103 C.3     1  UNL1       -0.0311
     17 C           0.6862    5.2754    1.5872 C.3     1  UNL1        0.0244
     18 H           0.1701    5.0222    2.5133 H       1  UNL1        0.0382
     19 C          -0.7435    2.3204   -0.3888 C.3     1  UNL1        0.0441
     20 H          -1.7943    2.0577   -0.5109 H       1  UNL1        0.0939
     21 C          -0.0622    2.2337   -1.7216 C.2     1  UNL1        0.1579
     22 C           0.1896    3.3437   -2.4890 C.2     1  UNL1        0.1248
     23 C          -0.1805    4.6736   -2.0069 C.2     1  UNL1        0.2108
     24 O           0.2233    5.6700   -2.5702 O.2     1  UNL1       -0.2882
     25 C           0.8354    3.1945   -3.8028 C.2     1  UNL1        0.2485
     26 O           2.0205    3.4376   -3.9291 O.2     1  UNL1       -0.2702
     27 N           0.1138    2.7884   -4.8662 N.am    1  UNL1       -0.3252
     28 O           0.3137    1.0305   -2.1799 O.2     1  UNL1       -0.5050
     29 C          -0.7565    0.0428    0.4327 C.3     1  UNL1       -0.0427
     30 C           1.3286    1.2646    0.2850 C.3     1  UNL1       -0.0427
     31 O          -2.4494    4.6220   -1.1612 O.3     1  UNL1       -0.3731
     32 O          -1.4836    7.1968   -0.7360 O.2     1  UNL1       -0.5073
     33 O           0.1198   10.1469    2.7980 O.3     1  UNL1       -0.5060
     34 CL          4.2181    6.1235    4.0138 Cl      1  UNL1       -0.0831
     35 O           2.7637    4.7555    2.6993 O.3     1  UNL1       -0.3836
     36 H           3.8894    6.2866    0.8377 H       1  UNL1        0.0261
     37 H           2.9105    5.0246    0.0519 H       1  UNL1        0.0261
     38 H           2.3746    6.7215    0.0104 H       1  UNL1        0.0261
     39 H           3.7271    8.7096    5.0910 H       1  UNL1        0.0633
     40 H           2.0217   10.4036    4.5808 H       1  UNL1        0.0655
     41 H           1.4153    4.2038   -0.1388 H       1  UNL1        0.0278
     42 H           1.1341    3.1840    1.2961 H       1  UNL1        0.0278
     43 H          -0.8446    2.6642   -4.7831 H       1  UNL1        0.1453
     44 H           0.5528    2.6203   -5.7147 H       1  UNL1        0.1453
     45 H           0.7506    1.1357   -3.0732 H       1  UNL1        0.2919
     46 H          -0.2627   -0.6521    1.1120 H       1  UNL1        0.0778
     47 H          -1.8090    0.1288    0.7029 H       1  UNL1        0.0778
     48 H          -0.6729   -0.3269   -0.5893 H       1  UNL1        0.0778
     49 H           1.5093    0.6105   -0.5680 H       1  UNL1        0.0778
     50 H           1.7285    2.2563    0.0736 H       1  UNL1        0.0778
     51 H           1.8204    0.8551    1.1674 H       1  UNL1        0.0778
     52 H          -2.7649    5.2783   -1.7974 H       1  UNL1        0.2113
     53 H          -2.0315    6.8865   -1.5128 H       1  UNL1        0.2918
     54 H          -0.6823   10.0739    3.3330 H       1  UNL1        0.2922
     55 H           2.9047    3.9176    2.2375 H       1  UNL1        0.2106
     56 N          -0.1202    1.3711    0.5572 N.4     1  UNL1        0.2388
     57 H          -0.2552    1.7171    1.5145 H       1  UNL1        0.2035
@<TRIPOS>UNITY_ATOM_ATTR
56 1
charge 1
@<TRIPOS>BOND
     1     1     2    1
     2     1    36    1
     3     1    37    1
     4     1    38    1
     5     2    17    1
     6     2     3    1
     7     2    35    1
     8     3     8   ar
     9     3     4   ar
    10     4     5   ar
    11     4    34    1
    12     5     6   ar
    13     5    39    1
    14     6     7   ar
    15     6    40    1
    16     7     8   ar
    17     7    33    1
    18     8     9    1
    19     9    10    2
    20     9    11    1
    21    11    17    1
    22    11    12    2
    23    12    13    1
    24    12    32    1
    25    13    23    1
    26    13    14    1
    27    13    31    1
    28    14    15    1
    29    14    16    1
    30    14    19    1
    31    16    17    1
    32    16    41    1
    33    16    42    1
    34    17    18    1
    35    19    20    1
    36    19    21    1
    37    19    56    1
    38    21    22    2
    39    21    28    1
    40    22    23    1
    41    22    25    1
    42    23    24    2
    43    25    26    2
    44    25    27   am
    45    27    43    1
    46    27    44    1
    47    28    45    1
    48    29    46    1
    49    29    47    1
    50    29    48    1
    51    29    56    1
    52    30    49    1
    53    30    50    1
    54    30    51    1
    55    30    56    1
    56    31    52    1
    57    32    53    1
    58    33    54    1
    59    35    55    1
    60    56    57    1
