@<TRIPOS>MOLECULE
ZINC01532731
 25 24 0 0 0
SMALL
GASTEIGER

@<TRIPOS>ATOM
      1 CG         -2.9291    3.2676   -1.3669 C.3     1  LYS1       -0.0428
      2 CD         -3.2586    3.7429   -2.7834 C.3     1  LYS1       -0.0124
      3 CE         -4.5287    4.5955   -2.7527 C.3     1  LYS1       -0.0354
      4 CB         -1.6590    2.4150   -1.3976 C.3     1  LYS1       -0.0041
      5 CA         -1.3295    1.9397    0.0189 C.3     1  LYS1        0.0160
      6 HA         -1.2591    2.8006    0.6838 H       1  LYS1        0.0914
      7 C          -0.0143    1.2041    0.0087 C.2     1  LYS1        0.0894
      8 O           0.0021   -0.0041    0.0020 O.co2   1  LYS1       -0.5442
      9 HG1        -3.7570    2.6725   -0.9815 H       1  LYS1        0.0269
     10 HG2        -2.7712    4.1316   -0.7213 H       1  LYS1        0.0269
     11 HD1        -2.4307    4.3381   -3.1687 H       1  LYS1        0.0317
     12 HD2        -3.4165    2.8790   -3.4290 H       1  LYS1        0.0317
     13 HE1        -5.3566    4.0004   -2.3673 H       1  LYS1        0.0813
     14 HE2        -4.3708    5.4595   -2.1071 H       1  LYS1        0.0813
     15 HZ1        -5.6806    5.6175   -4.1191 H       1  LYS1        0.1994
     16 HZ2        -4.0671    5.5515   -4.5166 H       1  LYS1        0.1994
     17 HB1        -0.8311    3.0102   -1.7829 H       1  LYS1        0.0324
     18 HB2        -1.8169    1.5511   -2.0432 H       1  LYS1        0.0324
     19 H1         -3.2699    1.5281    0.5701 H       1  LYS1        0.2001
     20 H2         -2.4751    0.2339   -0.1075 H       1  LYS1        0.2001
     21 NZ         -4.8488    5.0295   -4.1240 N.4     1  LYS1        0.2185
     22 HZ3        -5.0262    4.2031   -4.7069 H       1  LYS1        0.1994
     23 OXT         1.1389    1.8910    0.0013 O.co2   1  LYS1       -0.5442
     24 N          -2.3806    1.0343    0.5155 N.4     1  LYS1        0.2249
     25 H3         -2.1243    0.7012    1.4523 H       1  LYS1        0.2001
@<TRIPOS>UNITY_ATOM_ATTR
21 1
charge 1
23 1
charge -1
24 1
charge 1
@<TRIPOS>BOND
     1     1     2    1
     2     1     4    1
     3     1     9    1
     4     1    10    1
     5     2     3    1
     6     2    11    1
     7     2    12    1
     8     3    13    1
     9     3    14    1
    10     3    21    1
    11     4     5    1
    12     4    17    1
    13     4    18    1
    14     5     6    1
    15     5     7    1
    16     5    24    1
    17     7     8   ar
    18     7    23   ar
    19    15    21    1
    20    16    21    1
    21    19    24    1
    22    20    24    1
    23    21    22    1
    24    24    25    1
