@<TRIPOS>MOLECULE
ZINC08101108
 87 90 0 0 0
SMALL
GASTEIGER

@<TRIPOS>ATOM
      1 C          13.7767   16.6787   -5.2107 C.3     1  UNL1       -0.0653
      2 C          14.1850   15.5104   -4.3111 C.3     1  UNL1       -0.0559
      3 C          12.9309   14.8096   -3.7848 C.3     1  UNL1       -0.0533
      4 C          13.3391   13.6413   -2.8852 C.3     1  UNL1       -0.0531
      5 C          12.0850   12.9405   -2.3588 C.3     1  UNL1       -0.0531
      6 C          12.4933   11.7722   -1.4592 C.3     1  UNL1       -0.0530
      7 C          11.2392   11.0714   -0.9329 C.3     1  UNL1       -0.0526
      8 C          11.6475    9.9031   -0.0333 C.3     1  UNL1       -0.0430
      9 C          10.3934    9.2022    0.4931 C.3     1  UNL1        0.0449
     10 C          10.7955    8.0515    1.3792 C.2     1  UNL1        0.3073
     11 O          11.9651    7.8160    1.5701 O.2     1  UNL1       -0.2509
     12 O           9.8543    7.2881    1.9563 O.3     1  UNL1       -0.4593
     13 C          10.3144    6.1973    2.7969 C.3     1  UNL1        0.1320
     14 C           9.1080    5.4455    3.3628 C.3     1  UNL1        0.0036
     15 C           9.0645    3.6168    1.7757 C.3     1  UNL1        0.0096
     16 C           8.3022    3.0350    0.5829 C.3     1  UNL1        0.0095
     17 C           6.2305    3.9054    1.4824 C.3     1  UNL1        0.0095
     18 C           6.9928    4.4872    2.6752 C.3     1  UNL1        0.0096
     19 C           6.1870    2.0767   -0.1046 C.3     1  UNL1       -0.0300
     20 C           4.8605    1.5285    0.4253 C.3     1  UNL1        0.0036
     21 C           4.0871    0.8704   -0.7191 C.3     1  UNL1        0.0221
     22 N           2.8169    0.3455   -0.2117 N.pl3   1  UNL1       -0.2981
     23 C           1.7125    1.1931   -0.2398 C.ar    1  UNL1        0.0479
     24 C           1.9220    2.5683   -0.2472 C.ar    1  UNL1       -0.0393
     25 C           0.8487    3.4377   -0.2886 C.ar    1  UNL1       -0.0599
     26 C          -0.4429    2.9474   -0.3226 C.ar    1  UNL1       -0.0606
     27 C          -0.6632    1.5822   -0.3127 C.ar    1  UNL1       -0.0462
     28 C           0.4097    0.7034   -0.2685 C.ar    1  UNL1        0.0341
     29 S           0.1097   -1.0321   -0.2433 S.3     1  UNL1       -0.0857
     30 C           1.6357   -1.7199    0.3041 C.ar    1  UNL1        0.0341
     31 C           2.8043   -0.9638    0.2621 C.ar    1  UNL1        0.0484
     32 C           3.9957   -1.5290    0.7038 C.ar    1  UNL1       -0.0276
     33 C           4.0190   -2.8272    1.1781 C.ar    1  UNL1        0.0566
     34 C           2.8578   -3.5747    1.2162 C.ar    1  UNL1       -0.0490
     35 C           1.6669   -3.0226    0.7796 C.ar    1  UNL1       -0.0457
     36 C           5.3156   -3.4292    1.6551 C.3     1  UNL1        0.4175
     37 F           5.0903   -4.7415    2.0845 F       1  UNL1       -0.1659
     38 F           6.2412   -3.4343    0.6060 F       1  UNL1       -0.1659
     39 F           5.8190   -2.6709    2.7175 F       1  UNL1       -0.1659
     40 H          14.6701   17.1780   -5.5857 H       1  UNL1        0.0230
     41 H          13.1908   16.3037   -6.0499 H       1  UNL1        0.0230
     42 H          13.1783   17.3869   -4.6375 H       1  UNL1        0.0230
     43 H          14.7708   15.8855   -3.4720 H       1  UNL1        0.0263
     44 H          14.7833   14.8023   -4.8844 H       1  UNL1        0.0263
     45 H          12.3450   14.4346   -4.6239 H       1  UNL1        0.0265
     46 H          12.3325   15.5177   -3.2115 H       1  UNL1        0.0265
     47 H          13.9250   14.0164   -2.0460 H       1  UNL1        0.0265
     48 H          13.9375   12.9332   -3.4584 H       1  UNL1        0.0265
     49 H          11.4992   12.5654   -3.1980 H       1  UNL1        0.0265
     50 H          11.4867   13.6486   -1.7856 H       1  UNL1        0.0265
     51 H          13.0792   12.1472   -0.6201 H       1  UNL1        0.0265
     52 H          13.0917   11.0641   -2.0325 H       1  UNL1        0.0265
     53 H          10.6533   10.6963   -1.7720 H       1  UNL1        0.0265
     54 H          10.6408   11.7795   -0.3596 H       1  UNL1        0.0265
     55 H          12.2334   10.2781    0.8059 H       1  UNL1        0.0270
     56 H          12.2459    9.1949   -0.6065 H       1  UNL1        0.0270
     57 H           9.8075    8.8272   -0.3461 H       1  UNL1        0.0377
     58 H           9.7950    9.9104    1.0663 H       1  UNL1        0.0377
     59 H          10.9107    6.5972    3.6171 H       1  UNL1        0.0752
     60 H          10.9232    5.5140    2.2047 H       1  UNL1        0.0752
     61 H           8.4566    6.1454    3.8862 H       1  UNL1        0.0848
     62 H           9.4508    4.6789    4.0577 H       1  UNL1        0.0848
     63 H           9.1146    2.8745    2.5724 H       1  UNL1        0.0868
     64 H          10.0742    3.8861    1.4657 H       1  UNL1        0.0868
     65 H           8.8030    2.1306    0.2373 H       1  UNL1        0.0868
     66 H           8.2756    3.7673   -0.2239 H       1  UNL1        0.0868
     67 H           6.1804    4.6477    0.6858 H       1  UNL1        0.0868
     68 H           5.2209    3.6357    1.7926 H       1  UNL1        0.0868
     69 H           7.0194    3.7549    3.4821 H       1  UNL1        0.0868
     70 H           6.4920    5.3916    3.0208 H       1  UNL1        0.0868
     71 H           6.7776    1.2601   -0.5199 H       1  UNL1        0.0815
     72 H           5.9905    2.8149   -0.8821 H       1  UNL1        0.0815
     73 H           4.2699    2.3451    0.8406 H       1  UNL1        0.0332
     74 H           5.0571    0.7903    1.2027 H       1  UNL1        0.0332
     75 H           4.6777    0.0538   -1.1344 H       1  UNL1        0.0470
     76 H           3.8905    1.6086   -1.4966 H       1  UNL1        0.0470
     77 H           2.9287    2.9585   -0.2207 H       1  UNL1        0.0636
     78 H           1.0199    4.5041   -0.2944 H       1  UNL1        0.0618
     79 H          -1.2793    3.6296   -0.3614 H       1  UNL1        0.0618
     80 H          -1.6726    1.1992   -0.3397 H       1  UNL1        0.0629
     81 H           4.9074   -0.9507    0.6761 H       1  UNL1        0.0642
     82 H           2.8798   -4.5891    1.5861 H       1  UNL1        0.0623
     83 H           0.7592   -3.6071    0.8094 H       1  UNL1        0.0629
     84 N           8.3637    4.8314    2.2425 N.4     1  UNL1        0.2451
     85 H           8.3105    5.5043    1.4688 H       1  UNL1        0.2039
     86 N           6.9315    2.6907    1.0156 N.4     1  UNL1        0.2427
     87 H           6.9848    2.0179    1.7893 H       1  UNL1        0.2038
@<TRIPOS>UNITY_ATOM_ATTR
84 1
charge 1
86 1
charge 1
@<TRIPOS>BOND
     1     1     2    1
     2     1    40    1
     3     1    41    1
     4     1    42    1
     5     2     3    1
     6     2    43    1
     7     2    44    1
     8     3     4    1
     9     3    45    1
    10     3    46    1
    11     4     5    1
    12     4    47    1
    13     4    48    1
    14     5     6    1
    15     5    49    1
    16     5    50    1
    17     6     7    1
    18     6    51    1
    19     6    52    1
    20     7     8    1
    21     7    53    1
    22     7    54    1
    23     8     9    1
    24     8    55    1
    25     8    56    1
    26     9    10    1
    27     9    57    1
    28     9    58    1
    29    10    11    2
    30    10    12    1
    31    12    13    1
    32    13    14    1
    33    13    59    1
    34    13    60    1
    35    14    61    1
    36    14    62    1
    37    14    84    1
    38    15    16    1
    39    15    63    1
    40    15    64    1
    41    15    84    1
    42    16    65    1
    43    16    66    1
    44    16    86    1
    45    17    18    1
    46    17    67    1
    47    17    68    1
    48    17    86    1
    49    18    69    1
    50    18    70    1
    51    18    84    1
    52    19    20    1
    53    19    71    1
    54    19    72    1
    55    19    86    1
    56    20    21    1
    57    20    73    1
    58    20    74    1
    59    21    22    1
    60    21    75    1
    61    21    76    1
    62    22    31    1
    63    22    23    1
    64    23    28   ar
    65    23    24   ar
    66    24    25   ar
    67    24    77    1
    68    25    26   ar
    69    25    78    1
    70    26    27   ar
    71    26    79    1
    72    27    28   ar
    73    27    80    1
    74    28    29    1
    75    29    30    1
    76    30    35   ar
    77    30    31   ar
    78    31    32   ar
    79    32    33   ar
    80    32    81    1
    81    33    34   ar
    82    33    36    1
    83    34    35   ar
    84    34    82    1
    85    35    83    1
    86    36    37    1
    87    36    38    1
    88    36    39    1
    89    84    85    1
    90    86    87    1
