@<TRIPOS>MOLECULE
ZINC01530621
 36 37 0 0 0
SMALL
GASTEIGER

@<TRIPOS>ATOM
      1 C          -6.7442    2.4973   -0.0324 C.3     1  UNL1       -0.0245
      2 C          -5.3090    2.9240    0.2821 C.3     1  UNL1       -0.0360
      3 C          -2.9911    2.5798   -0.3274 C.3     1  UNL1        0.0074
      4 H          -2.9294    3.5928    0.0701 H       1  UNL1        0.0905
      5 C          -2.5333    1.6017    0.7421 C.3     1  UNL1        0.0171
      6 C          -1.1038    1.9230    1.2111 C.3     1  UNL1        0.0852
      7 H          -0.8627    1.3437    2.1024 H       1  UNL1        0.0540
      8 S           0.0136    1.4580   -0.1572 S.O2    1  UNL1        0.0064
      9 O           0.0633    0.0453   -0.3026 O.2     1  UNL1       -0.1686
     10 O           1.2042    2.2324   -0.1142 O.2     1  UNL1       -0.1686
     11 C          -0.8630    2.0364   -1.5626 C.ar    1  UNL1        0.1359
     12 C          -2.1440    2.4917   -1.5875 C.ar    1  UNL1        0.0340
     13 C          -2.6226    2.8854   -2.8424 C.ar    1  UNL1       -0.0177
     14 C          -1.8253    2.8139   -3.9319 C.ar    1  UNL1        0.1444
     15 S          -0.3121    2.1631   -3.2380 S.2     1  UNL1       -0.0498
     16 S          -2.1844    3.2484   -5.6013 S.O2    1  UNL1        0.0623
     17 O          -1.2919    2.5013   -6.4164 O.2     1  UNL1       -0.1527
     18 O          -3.5958    3.1698   -5.7467 O.2     1  UNL1       -0.1527
     19 N          -1.7771    4.8422   -5.7909 N.3     1  UNL1       -0.2030
     20 C          -0.9745    3.4186    1.5068 C.3     1  UNL1       -0.0422
     21 H          -7.0014    2.8063   -1.0455 H       1  UNL1        0.0281
     22 H          -6.8271    1.4135    0.0490 H       1  UNL1        0.0281
     23 H          -7.4265    2.9681    0.6753 H       1  UNL1        0.0281
     24 H          -5.0517    2.6150    1.2952 H       1  UNL1        0.0811
     25 H          -5.2260    4.0078    0.2007 H       1  UNL1        0.0811
     26 H          -3.2105    1.6605    1.5941 H       1  UNL1        0.0342
     27 H          -2.5567    0.5905    0.3357 H       1  UNL1        0.0342
     28 H          -3.6349    3.2487   -2.9411 H       1  UNL1        0.0648
     29 H          -1.4799    5.1674   -6.6551 H       1  UNL1        0.1443
     30 H          -1.8357    5.4507   -5.0377 H       1  UNL1        0.1443
     31 H          -1.2404    3.9892    0.6169 H       1  UNL1        0.0248
     32 H          -1.6443    3.6867    2.3238 H       1  UNL1        0.0248
     33 H           0.0533    3.6454    1.7902 H       1  UNL1        0.0248
     34 N          -4.3924    2.2836   -0.6801 N.4     1  UNL1        0.2324
     35 H          -4.5872    2.6410   -1.6227 H       1  UNL1        0.2019
     36 H          -4.5386    1.2675   -0.6623 H       1  UNL1        0.2019
@<TRIPOS>UNITY_ATOM_ATTR
34 1
charge 1
@<TRIPOS>BOND
     1     1     2    1
     2     1    21    1
     3     1    22    1
     4     1    23    1
     5     2    24    1
     6     2    25    1
     7     2    34    1
     8     3     4    1
     9     3    12    1
    10     3     5    1
    11     3    34    1
    12     5     6    1
    13     5    26    1
    14     5    27    1
    15     6     7    1
    16     6     8    1
    17     6    20    1
    18     8     9    2
    19     8    10    2
    20     8    11    1
    21    11    15   ar
    22    11    12   ar
    23    12    13   ar
    24    13    14   ar
    25    13    28    1
    26    14    15   ar
    27    14    16    1
    28    16    17    2
    29    16    18    2
    30    16    19    1
    31    19    29    1
    32    19    30    1
    33    20    31    1
    34    20    32    1
    35    20    33    1
    36    34    35    1
    37    34    36    1
