@<TRIPOS>MOLECULE
ZINC11616527
 46 47 0 0 0
SMALL
GASTEIGER

@<TRIPOS>ATOM
      1 C           5.7985   -1.5671   -1.2401 C.3     1  UNL1       -0.0185
      2 C           6.0212   -0.6632   -0.0259 C.3     1  UNL1        0.0097
      3 H           6.9777   -0.1501   -0.1255 H       1  UNL1        0.0882
      4 C           4.8948    0.3690    0.0549 C.3     1  UNL1        0.1316
      5 O           3.6334   -0.3025    0.0682 O.3     1  UNL1       -0.4864
      6 C           2.5211    0.4752    0.1379 C.ar    1  UNL1        0.1208
      7 C           1.2637   -0.1106    0.1547 C.ar    1  UNL1       -0.0199
      8 C           0.1346    0.6821    0.2260 C.ar    1  UNL1       -0.0583
      9 C           0.2569    2.0582    0.2806 C.ar    1  UNL1       -0.0615
     10 C           1.5090    2.6445    0.2640 C.ar    1  UNL1       -0.0583
     11 C           2.6412    1.8562    0.1928 C.ar    1  UNL1       -0.0199
     12 C           7.3711   -2.0046    1.4711 C.3     1  UNL1        0.0056
     13 H           7.8780   -2.2160    0.5296 H       1  UNL1        0.0877
     14 C           7.2566   -3.2926    2.2890 C.3     1  UNL1       -0.0189
     15 C           8.1734   -0.9686    2.2609 C.3     1  UNL1        0.1222
     16 H           8.1798   -0.0233    1.7182 H       1  UNL1        0.0701
     17 C           9.5884   -1.4564    2.4365 C.ar    1  UNL1       -0.0136
     18 C           9.8829   -2.3789    3.4235 C.ar    1  UNL1       -0.0525
     19 C          11.1782   -2.8319    3.5828 C.ar    1  UNL1       -0.0198
     20 C          12.1860   -2.3517    2.7592 C.ar    1  UNL1        0.1169
     21 C          11.8890   -1.4219    1.7734 C.ar    1  UNL1       -0.0198
     22 C          10.5910   -0.9766    1.6141 C.ar    1  UNL1       -0.0525
     23 O          13.4622   -2.7909    2.9182 O.3     1  UNL1       -0.5068
     24 O           7.5728   -0.7776    3.5434 O.3     1  UNL1       -0.3816
     25 H           6.5641   -2.3427   -1.2610 H       1  UNL1        0.0285
     26 H           4.8140   -2.0301   -1.1727 H       1  UNL1        0.0285
     27 H           5.8587   -0.9725   -2.1517 H       1  UNL1        0.0285
     28 H           4.9452    1.0303   -0.8100 H       1  UNL1        0.0754
     29 H           5.0039    0.9552    0.9674 H       1  UNL1        0.0754
     30 H           1.1676   -1.1855    0.1117 H       1  UNL1        0.0654
     31 H          -0.8446    0.2266    0.2387 H       1  UNL1        0.0619
     32 H          -0.6271    2.6765    0.3317 H       1  UNL1        0.0618
     33 H           1.6020    3.7197    0.3065 H       1  UNL1        0.0619
     34 H           3.6191    2.3146    0.1802 H       1  UNL1        0.0654
     35 H           8.2453   -3.7352    2.4100 H       1  UNL1        0.0285
     36 H           6.8382   -3.0644    3.2693 H       1  UNL1        0.0285
     37 H           6.6047   -3.9956    1.7704 H       1  UNL1        0.0285
     38 H           9.0989   -2.7486    4.0677 H       1  UNL1        0.0622
     39 H          11.4069   -3.5561    4.3507 H       1  UNL1        0.0654
     40 H          12.6719   -1.0462    1.1312 H       1  UNL1        0.0654
     41 H          10.3592   -0.2527    0.8468 H       1  UNL1        0.0622
     42 H          13.9860   -2.2626    3.5359 H       1  UNL1        0.2921
     43 H           7.5333   -1.5794    4.0825 H       1  UNL1        0.2105
     44 N           6.0190   -1.4798    1.2025 N.4     1  UNL1        0.2354
     45 H           5.3678   -2.2650    1.0860 H       1  UNL1        0.2021
     46 H           5.7174   -0.8997    1.9942 H       1  UNL1        0.2021
@<TRIPOS>UNITY_ATOM_ATTR
44 1
charge 1
@<TRIPOS>BOND
     1     1     2    1
     2     1    25    1
     3     1    26    1
     4     1    27    1
     5     2     3    1
     6     2     4    1
     7     2    44    1
     8     4     5    1
     9     4    28    1
    10     4    29    1
    11     5     6    1
    12     6    11   ar
    13     6     7   ar
    14     7     8   ar
    15     7    30    1
    16     8     9   ar
    17     8    31    1
    18     9    10   ar
    19     9    32    1
    20    10    11   ar
    21    10    33    1
    22    11    34    1
    23    12    13    1
    24    12    14    1
    25    12    15    1
    26    12    44    1
    27    14    35    1
    28    14    36    1
    29    14    37    1
    30    15    16    1
    31    15    17    1
    32    15    24    1
    33    17    22   ar
    34    17    18   ar
    35    18    19   ar
    36    18    38    1
    37    19    20   ar
    38    19    39    1
    39    20    21   ar
    40    20    23    1
    41    21    22   ar
    42    21    40    1
    43    22    41    1
    44    23    42    1
    45    24    43    1
    46    44    45    1
    47    44    46    1
