@<TRIPOS>MOLECULE
ZINC03830838
 63 66 0 0 0
SMALL
GASTEIGER

@<TRIPOS>ATOM
      1 C           3.5855   -0.4581   -4.4597 C.3     1  UNL1       -0.0586
      2 C           2.7353   -1.5261   -3.7666 C.3     1  UNL1       -0.0179
      3 C           1.6465   -0.8898   -2.9416 C.3     1  UNL1       -0.0464
      4 C           2.0971   -0.7011   -1.4848 C.3     1  UNL1       -0.0486
      5 C           3.6051   -0.5349   -1.4108 C.3     1  UNL1       -0.0274
      6 H           3.9111    0.2477   -2.1119 H       1  UNL1        0.0312
      7 C           4.2972   -1.8482   -1.7935 C.3     1  UNL1       -0.0340
      8 H           4.2049   -2.5351   -0.9270 H       1  UNL1        0.0307
      9 C           3.5875   -2.5037   -2.9355 C.3     1  UNL1       -0.0318
     10 H           2.9163   -3.2880   -2.5209 H       1  UNL1        0.0309
     11 C           4.4469   -3.1740   -4.0166 C.3     1  UNL1       -0.0487
     12 C           3.4460   -3.3685   -5.1887 C.3     1  UNL1       -0.0411
     13 C           2.2228   -2.4709   -4.8760 C.3     1  UNL1        0.0412
     14 H           1.3930   -3.0594   -4.5040 H       1  UNL1        0.0400
     15 C           1.8330   -1.6656   -6.0847 C.2     1  UNL1        0.2170
     16 O           1.4117   -0.5362   -5.9508 O.2     1  UNL1       -0.2755
     17 N           1.9520   -2.1988   -7.3167 N.am    1  UNL1       -0.3103
     18 C           1.5723   -1.4142   -8.4942 C.3     1  UNL1        0.0262
     19 C           2.4236   -0.1445   -8.5573 C.3     1  UNL1       -0.0442
     20 C           1.8030   -2.2461   -9.7574 C.3     1  UNL1       -0.0442
     21 C           0.0938   -1.0327   -8.3978 C.3     1  UNL1       -0.0442
     22 C           5.7831   -1.5884   -2.0050 C.3     1  UNL1       -0.0480
     23 C           6.3635   -0.9971   -0.7085 C.3     1  UNL1       -0.0334
     24 C           5.2916   -0.9676    0.3686 C.3     1  UNL1        0.0325
     25 H           4.9270   -1.9892    0.5336 H       1  UNL1        0.0507
     26 C           4.1052   -0.0918   -0.0454 C.3     1  UNL1        0.0078
     27 C           3.0528   -0.1803    1.0254 C.2     1  UNL1       -0.0712
     28 C           3.4517   -0.2204    2.3022 C.2     1  UNL1       -0.0032
     29 C           4.8915   -0.1885    2.6192 C.2     1  UNL1        0.2369
     30 O           5.2654    0.1037    3.7384 O.2     1  UNL1       -0.2708
     31 N           5.7956   -0.4851    1.6552 N.am    1  UNL1       -0.3082
     32 C           4.5670    1.3688   -0.1506 C.3     1  UNL1       -0.0541
     33 H           4.1846   -0.9225   -5.2430 H       1  UNL1        0.0235
     34 H           2.9334    0.2962   -4.9001 H       1  UNL1        0.0235
     35 H           4.2439    0.0125   -3.7295 H       1  UNL1        0.0235
     36 H           1.3809    0.0852   -3.3687 H       1  UNL1        0.0271
     37 H           0.7489   -1.5222   -2.9644 H       1  UNL1        0.0271
     38 H           1.6131    0.1955   -1.0768 H       1  UNL1        0.0268
     39 H           1.7867   -1.5609   -0.8870 H       1  UNL1        0.0268
     40 H           5.2812   -2.5472   -4.3127 H       1  UNL1        0.0268
     41 H           4.8101   -4.1431   -3.6682 H       1  UNL1        0.0268
     42 H           3.1381   -4.4118   -5.2487 H       1  UNL1        0.0273
     43 H           3.9058   -3.0609   -6.1274 H       1  UNL1        0.0273
     44 H           2.2890   -3.1021   -7.4238 H       1  UNL1        0.1492
     45 H           3.4770   -0.4163   -8.6260 H       1  UNL1        0.0250
     46 H           2.1411    0.4392   -9.4334 H       1  UNL1        0.0250
     47 H           2.2593    0.4481   -7.6573 H       1  UNL1        0.0250
     48 H           1.1965   -3.1507   -9.7125 H       1  UNL1        0.0250
     49 H           1.5205   -1.6624  -10.6335 H       1  UNL1        0.0250
     50 H           2.8563   -2.5180   -9.8261 H       1  UNL1        0.0250
     51 H          -0.0705   -0.4400   -7.4979 H       1  UNL1        0.0250
     52 H          -0.1887   -0.4490   -9.2739 H       1  UNL1        0.0250
     53 H          -0.5127   -1.9373   -8.3529 H       1  UNL1        0.0250
     54 H           5.9254   -0.8748   -2.8164 H       1  UNL1        0.0269
     55 H           6.2977   -2.5199   -2.2389 H       1  UNL1        0.0269
     56 H           6.7462    0.0027   -0.9030 H       1  UNL1        0.0283
     57 H           7.1945   -1.6292   -0.3757 H       1  UNL1        0.0283
     58 H           2.0022   -0.2044    0.7814 H       1  UNL1        0.0580
     59 H           2.7161   -0.2366    3.0944 H       1  UNL1        0.0666
     60 H           6.7426   -0.3836    1.8136 H       1  UNL1        0.1493
     61 H           5.3572    1.4471   -0.8973 H       1  UNL1        0.0239
     62 H           3.7254    1.9956   -0.4452 H       1  UNL1        0.0239
     63 H           4.9463    1.7005    0.8159 H       1  UNL1        0.0239
@<TRIPOS>BOND
     1     1     2    1
     2     1    33    1
     3     1    34    1
     4     1    35    1
     5     2     9    1
     6     2    13    1
     7     2     3    1
     8     3     4    1
     9     3    36    1
    10     3    37    1
    11     4     5    1
    12     4    38    1
    13     4    39    1
    14     5     6    1
    15     5    26    1
    16     5     7    1
    17     7     8    1
    18     7     9    1
    19     7    22    1
    20     9    10    1
    21     9    11    1
    22    11    12    1
    23    11    40    1
    24    11    41    1
    25    12    13    1
    26    12    42    1
    27    12    43    1
    28    13    14    1
    29    13    15    1
    30    15    16    2
    31    15    17   am
    32    17    18    1
    33    17    44    1
    34    18    19    1
    35    18    20    1
    36    18    21    1
    37    19    45    1
    38    19    46    1
    39    19    47    1
    40    20    48    1
    41    20    49    1
    42    20    50    1
    43    21    51    1
    44    21    52    1
    45    21    53    1
    46    22    23    1
    47    22    54    1
    48    22    55    1
    49    23    24    1
    50    23    56    1
    51    23    57    1
    52    24    25    1
    53    24    31    1
    54    24    26    1
    55    26    27    1
    56    26    32    1
    57    27    28    2
    58    27    58    1
    59    28    29    1
    60    28    59    1
    61    29    30    2
    62    29    31   am
    63    31    60    1
    64    32    61    1
    65    32    62    1
    66    32    63    1
