@<TRIPOS>MOLECULE
ZINC15848248
 25 24 0 0 0
SMALL
GASTEIGER

@<TRIPOS>ATOM
      1 C           3.6781    1.8049    0.0979 C.3     1  UNL1       -0.0619
      2 C           2.4216    0.9321    0.1092 C.3     1  UNL1       -0.0198
      3 C           1.1823    1.8205   -0.0168 C.3     1  UNL1        0.0807
      4 C           1.2476    2.6035   -1.3297 C.3     1  UNL1       -0.0287
      5 C           1.1344    2.7987    1.1586 C.3     1  UNL1       -0.0287
      6 N          -0.0208    0.9847   -0.0060 N.pl3   1  UNL1       -0.2702
      7 C          -1.2567    1.5667    0.0027 C.cat   1  UNL1        0.3955
      8 N          -2.3397    0.8163    0.1040 N.pl3   1  UNL1        0.0102
      9 C          -3.5656    1.3936    0.1126 C.1     1  UNL1        0.2954
     10 N          -4.5933    1.8775    0.1198 N.1     1  UNL1       -0.1505
     11 N          -1.3730    2.9244   -0.0934 N.pl3   1  UNL1       -0.2881
     12 H           3.7246    2.3628   -0.8374 H       1  UNL1        0.0231
     13 H           3.6440    2.5019    0.9353 H       1  UNL1        0.0231
     14 H           4.5610    1.1720    0.1877 H       1  UNL1        0.0231
     15 H           2.3751    0.3743    1.0445 H       1  UNL1        0.0298
     16 H           2.4557    0.2352   -0.7282 H       1  UNL1        0.0298
     17 H           0.4109    3.3004   -1.3791 H       1  UNL1        0.0266
     18 H           2.1851    3.1575   -1.3761 H       1  UNL1        0.0266
     19 H           1.1932    1.9104   -2.1692 H       1  UNL1        0.0266
     20 H           0.9990    2.2444    2.0873 H       1  UNL1        0.0266
     21 H           2.0681    3.3595    1.2029 H       1  UNL1        0.0266
     22 H           0.3020    3.4892    1.0229 H       1  UNL1        0.0266
     23 H           0.0600    0.0181   -0.0090 H       1  UNL1        0.2584
     24 H          -0.5842    3.4695   -0.2402 H       1  UNL1        0.2547
     25 H          -2.2443    3.3433   -0.0149 H       1  UNL1        0.2547
@<TRIPOS>BOND
     1     1     2    1
     2     1    12    1
     3     1    13    1
     4     1    14    1
     5     2     3    1
     6     2    15    1
     7     2    16    1
     8     3     4    1
     9     3     5    1
    10     3     6    1
    11     4    17    1
    12     4    18    1
    13     4    19    1
    14     5    20    1
    15     5    21    1
    16     5    22    1
    17     6     7    1
    18     6    23    1
    19     7     8    2
    20     7    11    1
    21     8     9    1
    22     9    10    3
    23    11    24    1
    24    11    25    1
