@<TRIPOS>MOLECULE
ZINC00000137
 44 45 0 0 0
SMALL
GASTEIGER

@<TRIPOS>ATOM
      1 C           3.1278    1.0265   -1.5617 C.3     1  UNL1       -0.0274
      2 C           2.2026    1.2151   -0.3578 C.3     1  UNL1        0.1167
      3 C           2.6656    2.3993    0.4510 C.ar    1  UNL1       -0.0117
      4 C           2.5429    2.3866    1.8278 C.ar    1  UNL1       -0.0555
      5 C           2.9716    3.4711    2.5701 C.ar    1  UNL1       -0.0614
      6 C           3.5148    4.5721    1.9347 C.ar    1  UNL1       -0.0617
      7 C           3.6327    4.5871    0.5575 C.ar    1  UNL1       -0.0614
      8 C           3.2079    3.5008   -0.1844 C.ar    1  UNL1       -0.0555
      9 C           0.7947    1.4548   -0.8388 C.ar    1  UNL1       -0.0116
     10 C          -0.2405    0.6713   -0.3640 C.ar    1  UNL1       -0.0541
     11 C          -1.5311    0.8870   -0.8091 C.ar    1  UNL1       -0.0430
     12 C          -1.7885    1.8945   -1.7218 C.ar    1  UNL1        0.0410
     13 C          -0.7521    2.6786   -2.1963 C.ar    1  UNL1       -0.0430
     14 C           0.5389    2.4585   -1.7544 C.ar    1  UNL1       -0.0541
     15 CL         -3.4101    2.1699   -2.2768 Cl      1  UNL1       -0.0835
     16 O           2.2344    0.0408    0.4559 O.3     1  UNL1       -0.3591
     17 C           3.5480   -0.3511    0.8597 C.3     1  UNL1        0.0891
     18 C           3.4527   -1.5295    1.8309 C.3     1  UNL1       -0.0084
     19 C           3.8131   -3.3205    0.2418 C.3     1  UNL1       -0.0433
     20 C           2.3135   -3.6471    2.1146 C.3     1  UNL1       -0.0433
     21 H           3.1035    1.9222   -2.1823 H       1  UNL1        0.0264
     22 H           4.1461    0.8531   -1.2137 H       1  UNL1        0.0264
     23 H           2.7928    0.1700   -2.1467 H       1  UNL1        0.0264
     24 H           2.1151    1.5279    2.3239 H       1  UNL1        0.0621
     25 H           2.8798    3.4593    3.6461 H       1  UNL1        0.0618
     26 H           3.8473    5.4206    2.5144 H       1  UNL1        0.0618
     27 H           4.0570    5.4473    0.0611 H       1  UNL1        0.0618
     28 H           3.3000    3.5124   -1.2604 H       1  UNL1        0.0621
     29 H          -0.0401   -0.1124    0.3515 H       1  UNL1        0.0622
     30 H          -2.3391    0.2717   -0.4418 H       1  UNL1        0.0632
     31 H          -0.9517    3.4622   -2.9122 H       1  UNL1        0.0632
     32 H           1.3480    3.0705   -2.1247 H       1  UNL1        0.0622
     33 H           4.1240   -0.6483   -0.0167 H       1  UNL1        0.0614
     34 H           4.0418    0.4866    1.3521 H       1  UNL1        0.0614
     35 H           4.4511   -1.7960    2.1779 H       1  UNL1        0.0837
     36 H           2.8347   -1.2485    2.6836 H       1  UNL1        0.0837
     37 H           4.6739   -3.6664    0.8140 H       1  UNL1        0.0777
     38 H           3.3401   -4.1694   -0.2518 H       1  UNL1        0.0777
     39 H           4.1408   -2.6005   -0.5081 H       1  UNL1        0.0777
     40 H           1.5064   -3.1840    2.6822 H       1  UNL1        0.0777
     41 H           1.9308   -4.5189    1.5839 H       1  UNL1        0.0777
     42 H           3.1063   -3.9558    2.7960 H       1  UNL1        0.0777
     43 N           2.8269   -2.6708    1.1307 N.4     1  UNL1        0.2325
     44 H           2.0436   -2.3254    0.5637 H       1  UNL1        0.2028
@<TRIPOS>UNITY_ATOM_ATTR
43 1
charge 1
@<TRIPOS>BOND
     1     1     2    1
     2     1    21    1
     3     1    22    1
     4     1    23    1
     5     2     3    1
     6     2     9    1
     7     2    16    1
     8     3     8   ar
     9     3     4   ar
    10     4     5   ar
    11     4    24    1
    12     5     6   ar
    13     5    25    1
    14     6     7   ar
    15     6    26    1
    16     7     8   ar
    17     7    27    1
    18     8    28    1
    19     9    14   ar
    20     9    10   ar
    21    10    11   ar
    22    10    29    1
    23    11    12   ar
    24    11    30    1
    25    12    13   ar
    26    12    15    1
    27    13    14   ar
    28    13    31    1
    29    14    32    1
    30    16    17    1
    31    17    18    1
    32    17    33    1
    33    17    34    1
    34    18    35    1
    35    18    36    1
    36    18    43    1
    37    19    37    1
    38    19    38    1
    39    19    39    1
    40    19    43    1
    41    20    40    1
    42    20    41    1
    43    20    42    1
    44    20    43    1
    45    43    44    1
