@<TRIPOS>MOLECULE
ZINC00000905
 33 33 0 0 0
SMALL
GASTEIGER

@<TRIPOS>ATOM
      1 C          -0.0127    1.0858    0.0080 C.3     1  UNL1        0.0031
      2 N          -0.6984    1.5583    1.2133 N.pl3   1  UNL1       -0.3056
      3 C           0.0634    1.8061    2.4399 C.3     1  UNL1        0.0031
      4 C          -2.0621    1.7699    1.1933 C.ar    1  UNL1        0.2232
      5 N          -2.6851    2.1934    2.2886 N.ar    1  UNL1       -0.1807
      6 C          -3.9978    2.4022    2.2679 C.ar    1  UNL1        0.2232
      7 N          -4.6891    2.1774    1.1548 N.ar    1  UNL1       -0.1807
      8 C          -4.0668    1.7490    0.0610 C.ar    1  UNL1        0.2232
      9 N          -2.7533    1.5451    0.0803 N.ar    1  UNL1       -0.1807
     10 N          -4.7845    1.5156   -1.0945 N.pl3   1  UNL1       -0.3056
     11 C          -4.0988    1.0431   -2.2998 C.3     1  UNL1        0.0031
     12 C          -6.2320    1.7403   -1.1158 C.3     1  UNL1        0.0031
     13 N          -4.6439    2.8469    3.4034 N.pl3   1  UNL1       -0.3056
     14 C          -6.0914    3.0712    3.3823 C.3     1  UNL1        0.0031
     15 C          -3.8821    3.0947    4.6300 C.3     1  UNL1        0.0031
     16 H           0.0021   -0.0041    0.0020 H       1  UNL1        0.0428
     17 H           1.0099    1.4631    0.0003 H       1  UNL1        0.0428
     18 H          -0.5399    1.4469   -0.8751 H       1  UNL1        0.0428
     19 H           1.1163    1.5852    2.2646 H       1  UNL1        0.0428
     20 H          -0.0452    2.8511    2.7302 H       1  UNL1        0.0428
     21 H          -0.3141    1.1663    3.2376 H       1  UNL1        0.0428
     22 H          -4.0840   -0.0468   -2.3058 H       1  UNL1        0.0428
     23 H          -4.6259    1.4042   -3.1829 H       1  UNL1        0.0428
     24 H          -3.0761    1.4203   -2.3076 H       1  UNL1        0.0428
     25 H          -6.5601    2.0878   -0.1361 H       1  UNL1        0.0428
     26 H          -6.4719    2.4926   -1.8672 H       1  UNL1        0.0428
     27 H          -6.7409    0.8078   -1.3598 H       1  UNL1        0.0428
     28 H          -6.6055    2.1541    3.6698 H       1  UNL1        0.0428
     29 H          -6.3463    3.8657    4.0837 H       1  UNL1        0.0428
     30 H          -6.3996    3.3608    2.3777 H       1  UNL1        0.0428
     31 H          -3.1269    3.8576    4.4408 H       1  UNL1        0.0428
     32 H          -4.5571    3.4382    5.4139 H       1  UNL1        0.0428
     33 H          -3.3954    2.1727    4.9480 H       1  UNL1        0.0428
@<TRIPOS>BOND
     1     1     2    1
     2     1    16    1
     3     1    17    1
     4     1    18    1
     5     2     3    1
     6     2     4    1
     7     3    19    1
     8     3    20    1
     9     3    21    1
    10     4     9   ar
    11     4     5   ar
    12     5     6   ar
    13     6     7   ar
    14     6    13    1
    15     7     8   ar
    16     8     9   ar
    17     8    10    1
    18    10    11    1
    19    10    12    1
    20    11    22    1
    21    11    23    1
    22    11    24    1
    23    12    25    1
    24    12    26    1
    25    12    27    1
    26    13    14    1
    27    13    15    1
    28    14    28    1
    29    14    29    1
    30    14    30    1
    31    15    31    1
    32    15    32    1
    33    15    33    1
