@<TRIPOS>MOLECULE
ZINC00000776
 43 45 0 0 0
SMALL
GASTEIGER

@<TRIPOS>ATOM
      1 C          -3.5138   -1.5589   -1.3718 C.3     1  UNL1       -0.0411
      2 N          -2.5864   -2.5344   -0.7832 N.4     1  UNL1        0.2439
      3 C          -1.2426   -1.9494   -0.7140 C.3     1  UNL1       -0.0031
      4 C          -1.2953   -0.6030    0.0112 C.3     1  UNL1        0.1018
      5 H          -2.0040    0.0547   -0.4922 H       1  UNL1        0.0653
      6 C          -1.7456   -0.8296    1.4601 C.3     1  UNL1        0.0055
      7 C          -3.0185   -1.6502    1.4317 C.2     1  UNL1       -0.0133
      8 C          -4.0930   -1.2849    2.1527 C.2     1  UNL1        0.0067
      9 C          -4.0423   -0.0680    2.9896 C.ar    1  UNL1        0.0205
     10 C          -4.7526    1.0963    2.8636 C.ar    1  UNL1       -0.0469
     11 C          -4.5376    2.1051    3.7767 C.ar    1  UNL1       -0.0541
     12 C          -3.6232    1.9205    4.7635 C.ar    1  UNL1       -0.0237
     13 S          -3.0337    0.2701    4.4235 S.2     1  UNL1       -0.0966
     14 C          -5.3247   -2.1003    2.1082 C.ar    1  UNL1        0.0205
     15 C          -5.9192   -2.8210    3.1098 C.ar    1  UNL1       -0.0469
     16 C          -7.0801   -3.5081    2.8314 C.ar    1  UNL1       -0.0541
     17 C          -7.5922   -3.4603    1.5746 C.ar    1  UNL1       -0.0237
     18 S          -6.4207   -2.4086    0.7330 S.2     1  UNL1       -0.0966
     19 C          -3.0451   -2.8915    0.5672 C.3     1  UNL1       -0.0076
     20 O           0.0021   -0.0041    0.0020 O.3     1  UNL1       -0.3742
     21 C          -0.0173    1.4248    0.0099 C.3     1  UNL1        0.0371
     22 C          -2.5514   -3.7400   -1.6218 C.3     1  UNL1       -0.0411
     23 H          -3.1782   -1.2983   -2.3756 H       1  UNL1        0.0778
     24 H          -4.5125   -1.9925   -1.4237 H       1  UNL1        0.0778
     25 H          -3.5388   -0.6620   -0.7528 H       1  UNL1        0.0778
     26 H          -0.8598   -1.8017   -1.7238 H       1  UNL1        0.0841
     27 H          -0.5823   -2.6265   -0.1721 H       1  UNL1        0.0841
     28 H          -0.9723   -1.3701    2.0060 H       1  UNL1        0.0339
     29 H          -1.9349    0.1299    1.9414 H       1  UNL1        0.0339
     30 H          -5.4701    1.2198    2.0659 H       1  UNL1        0.0629
     31 H          -5.0858    3.0328    3.7058 H       1  UNL1        0.0623
     32 H          -3.3282    2.5979    5.5511 H       1  UNL1        0.0693
     33 H          -5.4881   -2.8471    4.0996 H       1  UNL1        0.0629
     34 H          -7.5743   -4.0815    3.6018 H       1  UNL1        0.0623
     35 H          -8.4797   -3.9364    1.1845 H       1  UNL1        0.0693
     36 H          -4.0621   -3.2805    0.5170 H       1  UNL1        0.0865
     37 H          -2.3827   -3.6464    0.9907 H       1  UNL1        0.0865
     38 H           1.0053    1.8021    0.0021 H       1  UNL1        0.0524
     39 H          -0.5445    1.7859   -0.8732 H       1  UNL1        0.0524
     40 H          -0.5275    1.7763    0.9067 H       1  UNL1        0.0524
     41 H          -1.8613   -4.4640   -1.1885 H       1  UNL1        0.0778
     42 H          -3.5493   -4.1754   -1.6739 H       1  UNL1        0.0778
     43 H          -2.2177   -3.4752   -2.6251 H       1  UNL1        0.0778
@<TRIPOS>UNITY_ATOM_ATTR
2 1
charge 1
@<TRIPOS>BOND
     1     1     2    1
     2     1    23    1
     3     1    24    1
     4     1    25    1
     5     2    19    1
     6     2     3    1
     7     2    22    1
     8     3     4    1
     9     3    26    1
    10     3    27    1
    11     4     5    1
    12     4     6    1
    13     4    20    1
    14     6     7    1
    15     6    28    1
    16     6    29    1
    17     7     8    2
    18     7    19    1
    19     8     9    1
    20     8    14    1
    21     9    13   ar
    22     9    10   ar
    23    10    11   ar
    24    10    30    1
    25    11    12   ar
    26    11    31    1
    27    12    13   ar
    28    12    32    1
    29    14    18   ar
    30    14    15   ar
    31    15    16   ar
    32    15    33    1
    33    16    17   ar
    34    16    34    1
    35    17    18   ar
    36    17    35    1
    37    19    36    1
    38    19    37    1
    39    20    21    1
    40    21    38    1
    41    21    39    1
    42    21    40    1
    43    22    41    1
    44    22    42    1
    45    22    43    1
