@<TRIPOS>MOLECULE
ZINC03831474
 14 13 0 0 0
SMALL
GASTEIGER

@<TRIPOS>ATOM
      1 C          -0.0187    1.5258    0.0104 C.3     1  UNL1        0.0582
      2 H           1.0039    1.9031    0.0027 H       1  UNL1        0.0485
      3 C           0.0021   -0.0041    0.0020 C.3     1  UNL1        0.0582
      4 H           0.5123   -0.3556   -0.8948 H       1  UNL1        0.0485
      5 C           0.7309   -0.5033    1.2229 C.2     1  UNL1        0.0558
      6 O           0.6405    0.0966    2.2679 O.co2   1  UNL1       -0.5486
      7 S          -1.6997   -0.6320    0.0149 S.3     1  UNL1       -0.1675
      8 C          -0.7475    2.0250   -1.2105 C.2     1  UNL1        0.0558
      9 O          -1.6908    1.4078   -1.6454 O.co2   1  UNL1       -0.5486
     10 S          -0.8677    2.1108    1.5029 S.3     1  UNL1       -0.1675
     11 H          -2.2200   -0.1385    1.1528 H       1  UNL1        0.1023
     12 H          -2.1027    1.5878    1.4008 H       1  UNL1        0.1023
     13 O           1.4806   -1.6143    1.1495 O.co2   1  UNL1       -0.5486
     14 O          -0.3488    3.1553   -1.8147 O.co2   1  UNL1       -0.5486
@<TRIPOS>UNITY_ATOM_ATTR
13 1
charge -1
14 1
charge -1
@<TRIPOS>BOND
     1     1     2    1
     2     1     3    1
     3     1     8    1
     4     1    10    1
     5     3     4    1
     6     3     5    1
     7     3     7    1
     8     5     6   ar
     9     5    13   ar
    10     7    11    1
    11     8     9   ar
    12     8    14   ar
    13    10    12    1
