@<TRIPOS>MOLECULE
ZINC01731588
 54 57 0 0 0
SMALL
GASTEIGER

@<TRIPOS>ATOM
      1 C          -0.0127    1.0858    0.0080 C.3     1  UNL1       -0.0635
      2 C          -0.7288    1.5792    1.2668 C.3     1  UNL1       -0.0352
      3 CA         -0.7496    3.1091    1.2752 C.3     1  UNL1        0.0460
      4 HA         -1.1977    3.4715    0.3500 H       1  UNL1        0.0521
      5 C          -1.5725    3.6014    2.4674 C.3     1  UNL1        0.0625
      6 O          -1.0546    3.0320    3.6714 O.3     1  UNL1       -0.3932
      7 N           0.6207    3.6154    1.3853 N.am    1  UNL1       -0.3096
      8 C           1.3764    3.7605    0.2787 C.2     1  UNL1        0.2253
      9 O           0.9220    3.4718   -0.8080 O.2     1  UNL1       -0.2750
     10 C           2.7860    4.2814    0.3919 C.3     1  UNL1        0.0942
     11 H           3.3737    3.6155    1.0238 H       1  UNL1        0.0490
     12 C           3.4195    4.3635   -1.0016 C.3     1  UNL1       -0.0166
     13 C           4.7074    6.3475   -0.4108 C.3     1  UNL1        0.0092
     14 H           4.4619    6.9630   -1.2763 H       1  UNL1        0.0907
     15 C           6.1088    6.7670    0.0539 C.3     1  UNL1        0.0219
     16 C           6.0447    8.1479    0.6521 C.ar    1  UNL1       -0.0159
     17 C           6.9113    9.1406    0.8235 C.ar    1  UNL1        0.0088
     18 N           6.2990   10.2096    1.4593 N.ar    1  UNL1       -0.3494
     19 C           4.9925    9.9237    1.7181 C.ar    1  UNL1        0.0497
     20 C           4.7914    8.6346    1.2167 C.ar    1  UNL1        0.0108
     21 C           3.5642    7.9290    1.2339 C.ar    1  UNL1       -0.0074
     22 C           2.5169    8.5780    1.8375 C.ar    1  UNL1       -0.0534
     23 C           2.6986    9.8603    2.3510 C.ar    1  UNL1       -0.0592
     24 C           3.9005   10.5576    2.3094 C.ar    1  UNL1       -0.0376
     25 C           3.6371    6.5887    0.6205 C.2     1  UNL1        0.0052
     26 C           2.7695    5.6630    0.9887 C.2     1  UNL1       -0.0581
     27 C           6.9634   11.4687    1.8049 C.3     1  UNL1        0.0119
     28 C           5.5043    4.8516   -2.1263 C.3     1  UNL1       -0.0425
     29 H           0.0021   -0.0041    0.0020 H       1  UNL1        0.0230
     30 H           1.0099    1.4631    0.0003 H       1  UNL1        0.0230
     31 H          -0.5399    1.4469   -0.8751 H       1  UNL1        0.0230
     32 H          -1.7514    1.2020    1.2746 H       1  UNL1        0.0281
     33 H          -0.2017    1.2182    2.1499 H       1  UNL1        0.0281
     34 H1         -1.5141    4.6883    2.5251 H       1  UNL1        0.0575
     35 H2         -2.6122    3.2996    2.3407 H       1  UNL1        0.0575
     36 H          -1.5292    3.3012    4.4697 H       1  UNL1        0.2095
     37 H           0.9841    3.8463    2.2545 H       1  UNL1        0.1491
     38 H           3.5095    3.3622   -1.4227 H       1  UNL1        0.0825
     39 H           2.7997    4.9828   -1.6500 H       1  UNL1        0.0825
     40 H           6.4694    6.0624    0.8033 H       1  UNL1        0.0372
     41 H           6.7884    6.7711   -0.7984 H       1  UNL1        0.0372
     42 H           7.9452    9.1178    0.5122 H       1  UNL1        0.0812
     43 H           1.5514    8.0986    1.9050 H       1  UNL1        0.0624
     44 H           1.8502   10.3442    2.8120 H       1  UNL1        0.0618
     45 H           3.9853   11.5529    2.7200 H       1  UNL1        0.0638
     46 H           2.0290    5.9040    1.7370 H       1  UNL1        0.0586
     47 H           7.3945   11.3900    2.8030 H       1  UNL1        0.0456
     48 H           7.7540   11.6724    1.0827 H       1  UNL1        0.0456
     49 H           6.2361   12.2803    1.7862 H       1  UNL1        0.0456
     50 H           6.5254    5.1992   -1.9694 H       1  UNL1        0.0778
     51 H           5.5204    3.8100   -2.4473 H       1  UNL1        0.0778
     52 H           5.0270    5.4609   -2.8937 H       1  UNL1        0.0778
     53 N           4.7787    4.9391   -0.8512 N.4     1  UNL1        0.2395
     54 H           5.2877    4.3984   -0.1421 H       1  UNL1        0.2037
@<TRIPOS>UNITY_ATOM_ATTR
53 1
charge 1
@<TRIPOS>BOND
     1     1     2    1
     2     1    29    1
     3     1    30    1
     4     1    31    1
     5     2     3    1
     6     2    32    1
     7     2    33    1
     8     3     4    1
     9     3     5    1
    10     3     7    1
    11     5     6    1
    12     5    34    1
    13     5    35    1
    14     6    36    1
    15     7     8   am
    16     7    37    1
    17     8     9    2
    18     8    10    1
    19    10    11    1
    20    10    26    1
    21    10    12    1
    22    12    38    1
    23    12    39    1
    24    12    53    1
    25    13    14    1
    26    13    25    1
    27    13    15    1
    28    13    53    1
    29    15    16    1
    30    15    40    1
    31    15    41    1
    32    16    20   ar
    33    16    17   ar
    34    17    18   ar
    35    17    42    1
    36    18    19   ar
    37    18    27    1
    38    19    24   ar
    39    19    20   ar
    40    20    21   ar
    41    21    22   ar
    42    21    25    1
    43    22    23   ar
    44    22    43    1
    45    23    24   ar
    46    23    44    1
    47    24    45    1
    48    25    26    2
    49    26    46    1
    50    27    47    1
    51    27    48    1
    52    27    49    1
    53    28    50    1
    54    28    51    1
    55    28    52    1
    56    28    53    1
    57    53    54    1
