@<TRIPOS>MOLECULE
ZINC03831168
 50 53 0 0 0
SMALL
GASTEIGER

@<TRIPOS>ATOM
      1 C          -2.0867    7.0401    1.3241 C.3     1  UNL1       -0.0307
      2 C          -2.1658    5.5324    1.5716 C.3     1  UNL1        0.0868
      3 O          -0.8828    4.9448    1.3468 O.3     1  UNL1       -0.4915
      4 C          -0.7799    3.6050    1.5243 C.ar    1  UNL1        0.1332
      5 C          -1.9011    2.8680    1.9106 C.ar    1  UNL1       -0.0186
      6 C          -1.8418    1.5258    2.1057 C.ar    1  UNL1       -0.0505
      7 C          -0.6389    0.8218    1.9120 C.ar    1  UNL1       -0.0169
      8 C          -0.5690   -0.5679    2.1057 C.ar    1  UNL1       -0.0540
      9 C           0.6134   -1.2164    1.9147 C.ar    1  UNL1       -0.0612
     10 C           1.7576   -0.5225    1.5300 C.ar    1  UNL1       -0.0611
     11 C           1.7250    0.8264    1.3334 C.ar    1  UNL1       -0.0532
     12 C           0.5260    1.5241    1.5204 C.ar    1  UNL1       -0.0022
     13 C           0.4461    2.9705    1.3206 C.ar    1  UNL1        0.0859
     14 C           1.6314    3.7392    0.9133 C.2     1  UNL1        0.2489
     15 O           1.8736    3.9036   -0.2675 O.2     1  UNL1       -0.2700
     16 N           2.4497    4.2617    1.8482 N.am    1  UNL1       -0.2976
     17 CA          3.6307    5.0277    1.4424 C.3     1  UNL1        0.1279
     18 HA          3.5255    5.4779    0.4554 H       1  UNL1        0.0622
     19 C           4.1300    6.0055    2.5159 C.3     1  UNL1        0.1003
     20 H           4.2739    7.0408    2.2067 H       1  UNL1        0.0640
     21 N           5.3350    5.1451    2.6103 N.am    1  UNL1       -0.2761
     22 C           4.9347    4.2818    1.6347 C.2     1  UNL1        0.2401
     23 O           5.4282    3.3003    1.1207 O.2     1  UNL1       -0.2734
     24 CA          5.5961    4.6102    3.9624 C.3     1  UNL1        0.0807
     25 HA          6.1494    5.3531    4.5370 H       1  UNL1        0.0576
     26 C           4.2562    4.2873    4.6897 C.3     1  UNL1        0.0366
     27 S           3.2942    5.7676    4.1399 S.3     1  UNL1       -0.1275
     28 C           4.4313    4.2609    6.2094 C.3     1  UNL1       -0.0486
     29 C           3.6334    2.9873    4.1767 C.3     1  UNL1       -0.0486
     30 C           6.4187    3.3527    3.8486 C.2     1  UNL1        0.0635
     31 O           6.9003    3.0399    2.7855 O.co2   1  UNL1       -0.5478
     32 H          -1.3600    7.4826    2.0055 H       1  UNL1        0.0262
     33 H          -1.7784    7.2237    0.2948 H       1  UNL1        0.0262
     34 H          -3.0654    7.4883    1.4956 H       1  UNL1        0.0262
     35 H          -2.8925    5.0899    0.8902 H       1  UNL1        0.0694
     36 H          -2.4742    5.3488    2.6008 H       1  UNL1        0.0694
     37 H          -2.8397    3.3801    2.0626 H       1  UNL1        0.0654
     38 H          -2.7300    0.9910    2.4082 H       1  UNL1        0.0625
     39 H          -1.4484   -1.1193    2.4041 H       1  UNL1        0.0624
     40 H           0.6644   -2.2848    2.0643 H       1  UNL1        0.0618
     41 H           2.6833   -1.0597    1.3857 H       1  UNL1        0.0618
     42 H           2.6191    1.3535    1.0350 H       1  UNL1        0.0624
     43 H           2.2565    4.1306    2.7897 H       1  UNL1        0.1499
     44 H           3.4530    4.2054    6.6870 H       1  UNL1        0.0244
     45 H           5.0234    3.3904    6.4919 H       1  UNL1        0.0244
     46 H           4.9422    5.1681    6.5321 H       1  UNL1        0.0244
     47 H           3.5902    3.0101    3.0878 H       1  UNL1        0.0244
     48 H           4.2410    2.1416    4.4987 H       1  UNL1        0.0244
     49 H           2.6253    2.8842    4.5783 H       1  UNL1        0.0244
     50 OXT         6.6163    2.5800    4.9282 O.co2   1  UNL1       -0.5478
@<TRIPOS>UNITY_ATOM_ATTR
50 1
charge -1
@<TRIPOS>BOND
     1     1     2    1
     2     1    32    1
     3     1    33    1
     4     1    34    1
     5     2     3    1
     6     2    35    1
     7     2    36    1
     8     3     4    1
     9     4    13   ar
    10     4     5   ar
    11     5     6   ar
    12     5    37    1
    13     6     7   ar
    14     6    38    1
    15     7    12   ar
    16     7     8   ar
    17     8     9   ar
    18     8    39    1
    19     9    10   ar
    20     9    40    1
    21    10    11   ar
    22    10    41    1
    23    11    12   ar
    24    11    42    1
    25    12    13   ar
    26    13    14    1
    27    14    15    2
    28    14    16   am
    29    16    17    1
    30    16    43    1
    31    17    18    1
    32    17    22    1
    33    17    19    1
    34    19    20    1
    35    19    27    1
    36    19    21    1
    37    21    22   am
    38    21    24    1
    39    22    23    2
    40    24    25    1
    41    24    26    1
    42    24    30    1
    43    26    27    1
    44    26    28    1
    45    26    29    1
    46    28    44    1
    47    28    45    1
    48    28    46    1
    49    29    47    1
    50    29    48    1
    51    29    49    1
    52    30    31   ar
    53    30    50   ar
