@<TRIPOS>MOLECULE
ZINC03831229
 49 52 0 0 0
SMALL
GASTEIGER

@<TRIPOS>ATOM
      1 C          -3.8024   -0.0129   -0.0427 C.3     1  UNL1       -0.0567
      2 C          -2.4460    0.0977   -0.7947 C.3     1  UNL1       -0.0004
      3 C          -2.2480    1.5691   -1.0411 C.3     1  UNL1       -0.0445
      4 C          -0.7926    1.9848   -1.2271 C.3     1  UNL1       -0.0488
      5 C          -0.0186    1.5233    0.0104 C.3     1  UNL1       -0.0314
      6 H          -0.5349    1.8688    0.9086 H       1  UNL1        0.0309
      7 C           0.0021   -0.0041    0.0020 C.3     1  UNL1       -0.0340
      8 H           0.5756   -0.3337    0.8855 H       1  UNL1        0.0307
      9 C          -1.4101   -0.5629    0.1183 C.3     1  UNL1       -0.0298
     10 H          -1.7482   -0.4994    1.1770 H       1  UNL1        0.0310
     11 C          -1.3832   -2.0464   -0.3352 C.3     1  UNL1       -0.0468
     12 C          -1.6964   -2.0004   -1.8433 C.3     1  UNL1       -0.0235
     13 C          -2.5987   -0.7655   -2.0460 C.3     1  UNL1        0.0689
     14 C          -2.2117   -0.0377   -3.3302 C.3     1  UNL1       -0.0356
     15 O          -3.9651   -1.2037   -2.1517 O.3     1  UNL1       -0.3883
     16 C           0.7118   -0.5273   -1.2425 C.3     1  UNL1       -0.0460
     17 C           2.1674   -0.0453   -1.2523 C.3     1  UNL1       -0.0308
     18 C           2.1697    1.4681   -1.1346 C.2     1  UNL1       -0.0629
     19 C           2.8401    2.1716   -2.0433 C.2     1  UNL1       -0.0197
     20 C           2.8536    3.6367   -1.9443 C.2     1  UNL1        0.1561
     21 O           3.0058    4.3450   -2.9145 O.2     1  UNL1       -0.2927
     22 C           2.6620    4.2049   -0.5513 C.3     1  UNL1        0.0104
     23 C           1.3838    3.5936    0.0212 C.3     1  UNL1       -0.0392
     24 C           1.4053    2.0797   -0.0002 C.3     1  UNL1       -0.0160
     25 H           1.8891    1.7474    0.9272 H       1  UNL1        0.0349
     26 H          -3.7307    0.5043    0.9140 H       1  UNL1        0.0236
     27 H          -4.5893    0.4426   -0.6439 H       1  UNL1        0.0236
     28 H          -4.0382   -1.0632    0.1288 H       1  UNL1        0.0236
     29 H          -2.8506    1.9177   -1.8740 H       1  UNL1        0.0272
     30 H          -2.6282    2.1040   -0.1501 H       1  UNL1        0.0272
     31 H          -0.7421    3.0737   -1.3130 H       1  UNL1        0.0268
     32 H          -0.3703    1.5409   -2.1233 H       1  UNL1        0.0268
     33 H          -0.4080   -2.4968   -0.1518 H       1  UNL1        0.0269
     34 H          -2.1509   -2.6220    0.1916 H       1  UNL1        0.0269
     35 H          -0.7859   -1.9030   -2.4287 H       1  UNL1        0.0293
     36 H          -2.2332   -2.9026   -2.1426 H       1  UNL1        0.0293
     37 H          -2.3555   -0.7024   -4.1820 H       1  UNL1        0.0257
     38 H          -2.8380    0.8465   -3.4495 H       1  UNL1        0.0257
     39 H          -1.1654    0.2628   -3.2763 H       1  UNL1        0.0257
     40 H          -4.1330   -1.7909   -2.9013 H       1  UNL1        0.2102
     41 H           0.7156   -1.6200   -1.2395 H       1  UNL1        0.0271
     42 H           0.2173   -0.1742   -2.1436 H       1  UNL1        0.0271
     43 H           2.6993   -0.4798   -0.4069 H       1  UNL1        0.0310
     44 H           2.6446   -0.3444   -2.1841 H       1  UNL1        0.0310
     45 H           3.3684    1.6769   -2.8419 H       1  UNL1        0.0652
     46 H           2.5831    5.2003   -0.6053 H       1  UNL1        0.0345
     47 H           3.5130    3.9425    0.0768 H       1  UNL1        0.0345
     48 H           0.5325    3.9624   -0.5474 H       1  UNL1        0.0275
     49 H           1.2750    3.9279    1.0576 H       1  UNL1        0.0275
@<TRIPOS>BOND
     1     1     2    1
     2     1    26    1
     3     1    27    1
     4     1    28    1
     5     2     9    1
     6     2    13    1
     7     2     3    1
     8     3     4    1
     9     3    29    1
    10     3    30    1
    11     4     5    1
    12     4    31    1
    13     4    32    1
    14     5     6    1
    15     5    24    1
    16     5     7    1
    17     7     8    1
    18     7     9    1
    19     7    16    1
    20     9    10    1
    21     9    11    1
    22    11    12    1
    23    11    33    1
    24    11    34    1
    25    12    13    1
    26    12    35    1
    27    12    36    1
    28    13    14    1
    29    13    15    1
    30    14    37    1
    31    14    38    1
    32    14    39    1
    33    15    40    1
    34    16    17    1
    35    16    41    1
    36    16    42    1
    37    17    18    1
    38    17    43    1
    39    17    44    1
    40    18    24    1
    41    18    19    2
    42    19    20    1
    43    19    45    1
    44    20    21    2
    45    20    22    1
    46    22    23    1
    47    22    46    1
    48    22    47    1
    49    23    24    1
    50    23    48    1
    51    23    49    1
    52    24    25    1
