@<TRIPOS>MOLECULE
ZINC02001884
 61 61 0 0 0
SMALL
GASTEIGER

@<TRIPOS>ATOM
      1 C           2.9920    0.6377    0.6409 C.3     1  UNL1       -0.0492
      2 C           2.1578    1.5816    1.5092 C.3     1  UNL1        0.0133
      3 N           1.0213    2.0833    0.7326 N.am    1  UNL1       -0.2859
      4 C           1.1547    3.3155   -0.0484 C.3     1  UNL1        0.0133
      5 C           0.7626    4.5137    0.8184 C.3     1  UNL1       -0.0492
      6 C          -0.1469    1.4112    0.7367 C.2     1  UNL1        0.3064
      7 O          -0.2576    0.3885    1.3850 O.2     1  UNL1       -0.2523
      8 N          -1.1906    1.8697    0.0179 N.am    1  UNL1       -0.2693
      9 C          -2.3659    1.1112   -0.0735 C.ar    1  UNL1        0.0357
     10 C          -2.2959   -0.2788   -0.0791 C.ar    1  UNL1       -0.0369
     11 C          -3.4469   -1.0353   -0.1628 C.ar    1  UNL1       -0.0175
     12 C          -4.6840   -0.4151   -0.2537 C.ar    1  UNL1        0.1312
     13 C          -4.7634    0.9867   -0.2546 C.ar    1  UNL1        0.0605
     14 C          -3.5908    1.7462   -0.1634 C.ar    1  UNL1       -0.0264
     15 C          -6.0682    1.6522   -0.3509 C.2     1  UNL1        0.1637
     16 O          -7.0820    0.9907   -0.4297 O.2     1  UNL1       -0.2922
     17 C          -6.1484    3.1570   -0.3519 C.3     1  UNL1       -0.0013
     18 O          -5.8140   -1.1606   -0.3421 O.3     1  UNL1       -0.4885
     19 C          -5.6564   -2.5809   -0.3354 C.3     1  UNL1        0.1204
     20 C          -7.0297   -3.2469   -0.4418 C.3     1  UNL1        0.1285
     21 H          -7.6754   -2.8775    0.3549 H       1  UNL1        0.0681
     22 C          -6.8728   -4.7631   -0.3095 C.3     1  UNL1       -0.0033
     23 C          -8.0796   -6.8621   -0.2888 C.3     1  UNL1       -0.0203
     24 C          -7.4675   -7.2142    1.0686 C.3     1  UNL1       -0.0193
     25 C          -9.4698   -7.4913   -0.3999 C.3     1  UNL1       -0.0193
     26 C          -7.1850   -7.4010   -1.4069 C.3     1  UNL1       -0.0193
     27 O          -7.6124   -2.9372   -1.7094 O.3     1  UNL1       -0.3831
     28 H           3.8375    0.2645    1.2187 H       1  UNL1        0.0245
     29 H           2.3742   -0.2003    0.3182 H       1  UNL1        0.0245
     30 H           3.3585    1.1766   -0.2328 H       1  UNL1        0.0245
     31 H           2.7755    2.4197    1.8320 H       1  UNL1        0.0462
     32 H           1.7912    1.0428    2.3830 H       1  UNL1        0.0462
     33 H           2.1880    3.4274   -0.3769 H       1  UNL1        0.0462
     34 H           0.5001    3.2668   -0.9186 H       1  UNL1        0.0462
     35 H          -0.2707    4.4019    1.1469 H       1  UNL1        0.0245
     36 H           1.4172    4.5625    1.6885 H       1  UNL1        0.0245
     37 H           0.8618    5.4305    0.2372 H       1  UNL1        0.0245
     38 H          -1.1286    2.7245   -0.4363 H       1  UNL1        0.1564
     39 H          -1.3354   -0.7682   -0.0130 H       1  UNL1        0.0637
     40 H          -3.3839   -2.1134   -0.1620 H       1  UNL1        0.0655
     41 H          -3.6429    2.8249   -0.1637 H       1  UNL1        0.0644
     42 H          -5.2273    3.5399   -0.2810 H       1  UNL1        0.0309
     43 H          -6.6123    3.4955   -1.2783 H       1  UNL1        0.0309
     44 H          -6.7464    3.4896    0.4965 H       1  UNL1        0.0309
     45 H          -5.0399   -2.8820   -1.1823 H       1  UNL1        0.0725
     46 H          -5.1743   -2.8886    0.5925 H       1  UNL1        0.0725
     47 H          -6.2271   -5.1325   -1.1062 H       1  UNL1        0.0841
     48 H          -6.4284   -4.9993    0.6573 H       1  UNL1        0.0841
     49 H          -8.1048   -6.8302    1.8651 H       1  UNL1        0.0287
     50 H          -7.3845   -8.2972    1.1598 H       1  UNL1        0.0287
     51 H          -6.4771   -6.7660    1.1478 H       1  UNL1        0.0287
     52 H          -9.9058   -7.2405   -1.3669 H       1  UNL1        0.0287
     53 H          -9.3868   -8.5743   -0.3087 H       1  UNL1        0.0287
     54 H         -10.1071   -7.1073    0.3966 H       1  UNL1        0.0287
     55 H          -6.1946   -6.9528   -1.3277 H       1  UNL1        0.0287
     56 H          -7.1020   -8.4840   -1.3156 H       1  UNL1        0.0287
     57 H          -7.6210   -7.1502   -2.3738 H       1  UNL1        0.0287
     58 H          -7.0903   -3.2371   -2.4661 H       1  UNL1        0.2102
     59 N          -8.2006   -5.3972   -0.4131 N.4     1  UNL1        0.2327
     60 H          -8.6154   -5.1677   -1.3239 H       1  UNL1        0.2020
     61 H          -8.8049   -5.0424    0.3373 H       1  UNL1        0.2020
@<TRIPOS>UNITY_ATOM_ATTR
59 1
charge 1
@<TRIPOS>BOND
     1     1     2    1
     2     1    28    1
     3     1    29    1
     4     1    30    1
     5     2     3    1
     6     2    31    1
     7     2    32    1
     8     3     4    1
     9     3     6   am
    10     4     5    1
    11     4    33    1
    12     4    34    1
    13     5    35    1
    14     5    36    1
    15     5    37    1
    16     6     7    2
    17     6     8   am
    18     8     9    1
    19     8    38    1
    20     9    14   ar
    21     9    10   ar
    22    10    11   ar
    23    10    39    1
    24    11    12   ar
    25    11    40    1
    26    12    13   ar
    27    12    18    1
    28    13    14   ar
    29    13    15    1
    30    14    41    1
    31    15    16    2
    32    15    17    1
    33    17    42    1
    34    17    43    1
    35    17    44    1
    36    18    19    1
    37    19    20    1
    38    19    45    1
    39    19    46    1
    40    20    21    1
    41    20    22    1
    42    20    27    1
    43    22    47    1
    44    22    48    1
    45    22    59    1
    46    23    24    1
    47    23    25    1
    48    23    26    1
    49    23    59    1
    50    24    49    1
    51    24    50    1
    52    24    51    1
    53    25    52    1
    54    25    53    1
    55    25    54    1
    56    26    55    1
    57    26    56    1
    58    26    57    1
    59    27    58    1
    60    59    60    1
    61    59    61    1
