@<TRIPOS>MOLECULE
ZINC11616596
 67 68 0 0 0
SMALL
GASTEIGER

@<TRIPOS>ATOM
      1 C           2.4879   -0.7887   -3.2333 C.3     1  UNL1       -0.0193
      2 C           3.0397   -1.6787   -2.1178 C.3     1  UNL1       -0.0004
      3 H           2.4678   -2.6057   -2.0761 H       1  UNL1        0.0873
      4 C           2.9250   -0.9479   -0.7785 C.3     1  UNL1        0.1041
      5 H           1.8731   -0.7985   -0.5349 H       1  UNL1        0.0654
      6 C           3.5892   -1.7845    0.3181 C.3     1  UNL1       -0.0160
      7 C           3.5232   -1.0196    1.6436 C.3     1  UNL1       -0.0025
      8 C           4.1950    0.3456    1.4666 C.3     1  UNL1        0.0279
      9 H           5.2492    0.2055    1.2275 H       1  UNL1        0.0900
     10 C           3.5074    1.0999    0.3256 C.3     1  UNL1        0.2034
     11 H           4.0088    2.0547    0.1670 H       1  UNL1        0.0970
     12 O           3.5778    0.3202   -0.8699 O.3     1  UNL1       -0.3375
     13 O           2.1384    1.3309    0.6640 O.3     1  UNL1       -0.3348
     14 C           1.4773    2.2639   -0.1930 C.3     1  UNL1        0.1341
     15 H           2.0010    2.3146   -1.1477 H       1  UNL1        0.0681
     16 C           1.4767    3.6465    0.4623 C.3     1  UNL1        0.0340
     17 H           0.9725    4.3582   -0.1914 H       1  UNL1        0.0903
     18 C           0.7417    3.5754    1.8022 C.3     1  UNL1        0.1277
     19 H           0.7412    4.5604    2.2691 H       1  UNL1        0.0678
     20 C          -0.7005    3.1208    1.5693 C.3     1  UNL1        0.1104
     21 H          -1.2048    3.8325    0.9156 H       1  UNL1        0.0643
     22 C          -0.6999    1.7382    0.9140 C.3     1  UNL1        0.0831
     23 H          -0.1957    1.0265    1.5677 H       1  UNL1        0.0553
     24 C           0.0351    1.8093   -0.4259 C.3     1  UNL1        0.1077
     25 H          -0.4691    2.5210   -1.0797 H       1  UNL1        0.0641
     26 O           0.0357    0.5180   -1.0380 O.3     1  UNL1       -0.3871
     27 N          -2.0808    1.3029    0.6910 N.am    1  UNL1       -0.2920
     28 C          -2.9710    2.0972   -0.1592 C.3     1  UNL1        0.0038
     29 C          -2.5323    0.1717    1.2681 C.2     1  UNL1        0.2608
     30 O          -1.7954   -0.4858    1.9720 O.2     1  UNL1       -0.2697
     31 C          -3.9529   -0.2761    1.0387 C.3     1  UNL1        0.0427
     32 O          -1.3870    3.0544    2.8209 O.3     1  UNL1       -0.3751
     33 C          -2.0364    4.2718    3.1929 C.3     1  UNL1        0.0370
     34 O           1.4027    2.6424    2.6593 O.3     1  UNL1       -0.3835
     35 H           2.5696   -1.3094   -4.1874 H       1  UNL1        0.0285
     36 H           1.4411   -0.5610   -3.0321 H       1  UNL1        0.0285
     37 H           3.0599    0.1382   -3.2750 H       1  UNL1        0.0285
     38 H           4.6309   -1.9686    0.0553 H       1  UNL1        0.0294
     39 H           3.0648   -2.7347    0.4194 H       1  UNL1        0.0294
     40 H           4.0437   -1.5846    2.4170 H       1  UNL1        0.0322
     41 H           2.4815   -0.8787    1.9318 H       1  UNL1        0.0322
     42 H           0.4859    0.4884   -1.8933 H       1  UNL1        0.2100
     43 H          -2.8892    1.7547   -1.1908 H       1  UNL1        0.0429
     44 H          -3.9995    1.9799    0.1820 H       1  UNL1        0.0429
     45 H          -2.6866    3.1478   -0.1016 H       1  UNL1        0.0429
     46 H          -4.6383    0.4929    1.3949 H       1  UNL1        0.0911
     47 H          -4.1142   -0.4414   -0.0266 H       1  UNL1        0.0911
     48 H          -3.9913   -1.4163    2.7524 H       1  UNL1        0.1999
     49 H          -5.1429   -1.8475    1.6327 H       1  UNL1        0.1999
     50 H          -1.2966    5.0682    3.2737 H       1  UNL1        0.0524
     51 H          -2.7739    4.5364    2.4351 H       1  UNL1        0.0524
     52 H          -2.5340    4.1393    4.1536 H       1  UNL1        0.0524
     53 H           2.3234    2.8679    2.8505 H       1  UNL1        0.2102
     54 H           2.8913    5.0363    1.0151 H       1  UNL1        0.1999
     55 H           3.3367    3.4644    1.3258 H       1  UNL1        0.1999
     56 H           4.5188    0.6401    3.4783 H       1  UNL1        0.1999
     57 H           4.4463    2.0482    2.5963 H       1  UNL1        0.1999
     58 H           4.5528   -2.4688   -3.2687 H       1  UNL1        0.1998
     59 H           5.0131   -1.1483   -2.3686 H       1  UNL1        0.1998
     60 N          -4.1796   -1.5414    1.7591 N.4     1  UNL1        0.2251
     61 H          -3.5480   -2.2599    1.3863 H       1  UNL1        0.1999
     62 N           2.8705    4.0809    0.6623 N.4     1  UNL1        0.2246
     63 H           3.3675    4.0443   -0.2353 H       1  UNL1        0.1999
     64 N           4.0470    1.1183    2.7125 N.4     1  UNL1        0.2243
     65 H           3.0492    1.2079    2.9376 H       1  UNL1        0.1999
     66 N           4.4555   -2.0008   -2.3692 N.4     1  UNL1        0.2224
     67 H           4.7964   -2.6246   -1.6284 H       1  UNL1        0.1998
@<TRIPOS>UNITY_ATOM_ATTR
60 1
charge 1
62 1
charge 1
64 1
charge 1
66 1
charge 1
@<TRIPOS>BOND
     1     1     2    1
     2     1    35    1
     3     1    36    1
     4     1    37    1
     5     2     3    1
     6     2     4    1
     7     2    66    1
     8     4     5    1
     9     4    12    1
    10     4     6    1
    11     6     7    1
    12     6    38    1
    13     6    39    1
    14     7     8    1
    15     7    40    1
    16     7    41    1
    17     8     9    1
    18     8    10    1
    19     8    64    1
    20    10    11    1
    21    10    12    1
    22    10    13    1
    23    13    14    1
    24    14    15    1
    25    14    24    1
    26    14    16    1
    27    16    17    1
    28    16    18    1
    29    16    62    1
    30    18    19    1
    31    18    20    1
    32    18    34    1
    33    20    21    1
    34    20    22    1
    35    20    32    1
    36    22    23    1
    37    22    24    1
    38    22    27    1
    39    24    25    1
    40    24    26    1
    41    26    42    1
    42    27    28    1
    43    27    29   am
    44    28    43    1
    45    28    44    1
    46    28    45    1
    47    29    30    2
    48    29    31    1
    49    31    46    1
    50    31    47    1
    51    31    60    1
    52    32    33    1
    53    33    50    1
    54    33    51    1
    55    33    52    1
    56    34    53    1
    57    48    60    1
    58    49    60    1
    59    54    62    1
    60    55    62    1
    61    56    64    1
    62    57    64    1
    63    58    66    1
    64    59    66    1
    65    60    61    1
    66    62    63    1
    67    64    65    1
    68    66    67    1
