@<TRIPOS>MOLECULE
ZINC01532739
 24 24 0 0 0
SMALL
GASTEIGER

@<TRIPOS>ATOM
      1 C           0.2080    4.9148   -1.2278 C.3     1  UNL1        0.0795
      2 C           1.5602    5.6302   -1.2873 C.3     1  UNL1        0.1070
      3 H           1.4024    6.7086   -1.3023 H       1  UNL1        0.0643
      4 C           2.3846    5.2506   -0.0533 C.3     1  UNL1        0.1141
      5 H           3.3700    5.7122   -0.1170 H       1  UNL1        0.0648
      6 C           2.5347    3.7271   -0.0021 C.3     1  UNL1        0.1392
      7 H           3.0729    3.4443    0.9026 H       1  UNL1        0.0675
      8 C           1.1449    3.0852    0.0077 C.3     1  UNL1        0.2201
      9 O           0.4201    3.5037   -1.1506 O.3     1  UNL1       -0.3421
     10 C           1.2864    1.5618   -0.0018 C.3     1  UNL1        0.1006
     11 O          -0.0110    0.9628    0.0073 O.3     1  UNL1       -0.3896
     12 O           0.4408    3.4911    1.1831 O.3     1  UNL1       -0.3609
     13 O           3.2592    3.2798   -1.1498 O.3     1  UNL1       -0.3837
     14 O           1.7173    5.7051    1.1257 O.3     1  UNL1       -0.3864
     15 O           2.2589    5.2333   -2.4689 O.3     1  UNL1       -0.3869
     16 H          -0.3414    5.2485   -0.3475 H       1  UNL1        0.0587
     17 H          -0.3661    5.1476   -2.1246 H       1  UNL1        0.0587
     18 H           1.8401    1.2428    0.8812 H       1  UNL1        0.0612
     19 H           1.8231    1.2523   -0.8987 H       1  UNL1        0.0612
     20 H           0.0021   -0.0041    0.0020 H       1  UNL1        0.2096
     21 H          -0.4498    3.1214    1.2554 H       1  UNL1        0.2129
     22 H           4.1507    3.6477   -1.2201 H       1  UNL1        0.2101
     23 H           1.5882    6.6628    1.1602 H       1  UNL1        0.2100
     24 H           1.7936    5.4434   -3.2902 H       1  UNL1        0.2100
@<TRIPOS>BOND
     1     1     9    1
     2     1     2    1
     3     1    16    1
     4     1    17    1
     5     2     3    1
     6     2     4    1
     7     2    15    1
     8     4     5    1
     9     4     6    1
    10     4    14    1
    11     6     7    1
    12     6     8    1
    13     6    13    1
    14     8     9    1
    15     8    10    1
    16     8    12    1
    17    10    11    1
    18    10    18    1
    19    10    19    1
    20    11    20    1
    21    12    21    1
    22    13    22    1
    23    14    23    1
    24    15    24    1
