@<TRIPOS>MOLECULE
ZINC01849559
 41 43 0 0 0
SMALL
GASTEIGER

@<TRIPOS>ATOM
      1 C           5.7684   -1.6925    5.6404 C.3     1  UNL1       -0.0409
      2 C           4.4021   -1.2194    5.2154 C.2     1  UNL1       -0.0396
      3 CA          3.4870   -2.1645    5.0630 C.2     1  UNL1        0.0596
      4 N           2.1964   -1.8348    4.6169 N.am    1  UNL1       -0.2534
      5 C           1.5566   -0.4815    4.6661 C.3     1  UNL1        0.1041
      6 H           1.1220   -0.1775    5.6183 H       1  UNL1        0.0644
      7 CA          0.5741   -1.0406    3.6425 C.3     1  UNL1        0.1285
      8 HA         -0.4681   -0.9741    3.9548 H       1  UNL1        0.0622
      9 C           1.2056   -2.3976    3.9038 C.2     1  UNL1        0.2438
     10 O           0.9262   -3.5362    3.5931 O.2     1  UNL1       -0.2731
     11 N           0.7943   -0.5418    2.2828 N.am    1  UNL1       -0.2968
     12 C          -0.2244   -0.5172    1.4007 C.2     1  UNL1        0.2665
     13 O          -1.3235   -0.9081    1.7327 O.2     1  UNL1       -0.2692
     14 CA          0.0021   -0.0041    0.0020 C.3     1  UNL1        0.0789
     15 HA          0.9692   -0.3523   -0.3606 H       1  UNL1        0.1002
     16 C          -0.0184    1.5028    0.0103 C.ar    1  UNL1        0.0091
     17 C          -1.2248    2.1776    0.0197 C.ar    1  UNL1       -0.0528
     18 C          -1.2435    3.5598    0.0318 C.ar    1  UNL1       -0.0613
     19 C          -0.0559    4.2672    0.0247 C.ar    1  UNL1       -0.0617
     20 C           1.1505    3.5924    0.0104 C.ar    1  UNL1       -0.0613
     21 C           1.1693    2.2102    0.0028 C.ar    1  UNL1       -0.0528
     22 H1         -1.9677   -0.1938   -0.5656 H       1  UNL1        0.2005
     23 H2         -0.8962   -0.2264   -1.8370 H       1  UNL1        0.2005
     24 S           2.8074    0.6686    4.0012 S.3     1  UNL1       -0.1312
     25 C           4.2563    0.2546    5.0213 C.3     1  UNL1        0.0184
     26 C           3.8239   -3.5679    5.3626 C.2     1  UNL1        0.0859
     27 O           2.9861   -4.4369    5.2235 O.co2   1  UNL1       -0.5433
     28 H           6.4363   -0.8364    5.7346 H       1  UNL1        0.0275
     29 H           5.6938   -2.2025    6.6008 H       1  UNL1        0.0275
     30 H           6.1632   -2.3809    4.8932 H       1  UNL1        0.0275
     31 H           1.6734   -0.2292    2.0173 H       1  UNL1        0.1497
     32 H          -2.1527    1.6249    0.0211 H       1  UNL1        0.0622
     33 H          -2.1860    4.0870    0.0433 H       1  UNL1        0.0618
     34 H          -0.0705    5.3471    0.0307 H       1  UNL1        0.0618
     35 H           2.0784    4.1450    0.0049 H       1  UNL1        0.0618
     36 H           2.1118    1.6830   -0.0087 H       1  UNL1        0.0622
     37 H           5.1532    0.6385    4.5351 H       1  UNL1        0.0423
     38 H           4.1509    0.7305    5.9963 H       1  UNL1        0.0423
     39 N          -1.0575   -0.5283   -0.8776 N.4     1  UNL1        0.2307
     40 H3         -1.0479   -1.5544   -0.8431 H       1  UNL1        0.2005
     41 OXT         5.0613   -3.8872    5.7907 O.co2   1  UNL1       -0.5433
@<TRIPOS>UNITY_ATOM_ATTR
39 1
charge 1
41 1
charge -1
@<TRIPOS>BOND
     1     1     2    1
     2     1    28    1
     3     1    29    1
     4     1    30    1
     5     2    25    1
     6     2     3    2
     7     3     4    1
     8     3    26    1
     9     4     9   am
    10     4     5    1
    11     5     6    1
    12     5     7    1
    13     5    24    1
    14     7     8    1
    15     7     9    1
    16     7    11    1
    17     9    10    2
    18    11    12   am
    19    11    31    1
    20    12    13    2
    21    12    14    1
    22    14    15    1
    23    14    16    1
    24    14    39    1
    25    16    21   ar
    26    16    17   ar
    27    17    18   ar
    28    17    32    1
    29    18    19   ar
    30    18    33    1
    31    19    20   ar
    32    19    34    1
    33    20    21   ar
    34    20    35    1
    35    21    36    1
    36    22    39    1
    37    23    39    1
    38    24    25    1
    39    25    37    1
    40    25    38    1
    41    26    27   ar
    42    26    41   ar
    43    39    40    1
