@<TRIPOS>MOLECULE
ZINC00001206
 42 45 0 0 0
SMALL
GASTEIGER

@<TRIPOS>ATOM
      1 C          -1.8651   -2.3826    4.5395 C.3     1  UNL1       -0.0428
      2 C          -1.5296   -0.3903    3.2051 C.3     1  UNL1        0.0049
      3 C          -1.6946    0.1896    1.7963 C.3     1  UNL1        0.1204
      4 N          -0.8837   -0.6089    0.8645 N.pl3   1  UNL1       -0.2097
      5 C          -1.0489   -2.0703    0.8747 C.3     1  UNL1        0.1204
      6 C          -0.9051   -2.5616    2.3239 C.3     1  UNL1        0.0049
      7 C           0.0021   -0.0041    0.0020 C.2     1  UNL1        0.3226
      8 N           0.7419   -0.7958   -0.6585 N.2     1  UNL1       -0.0403
      9 C           1.6892   -0.5584   -1.5998 C.ar    1  UNL1        0.1900
     10 C           1.6873   -1.3311   -2.7669 C.ar    1  UNL1       -0.0097
     11 C           2.6404   -1.1212   -3.7432 C.ar    1  UNL1       -0.0576
     12 C           3.6063   -0.1462   -3.5788 C.ar    1  UNL1       -0.0604
     13 C           3.6197    0.6279   -2.4306 C.ar    1  UNL1       -0.0438
     14 C           2.6680    0.4281   -1.4457 C.ar    1  UNL1        0.0634
     15 S           2.6935    1.4306    0.0046 S.3     1  UNL1       -0.0843
     16 C           1.1236    2.2318   -0.0259 C.ar    1  UNL1        0.0278
     17 C          -0.0460    1.4593   -0.0195 C.ar    1  UNL1        0.0807
     18 C          -1.2843    2.1091   -0.0400 C.ar    1  UNL1       -0.0274
     19 C          -1.3446    3.4881   -0.0591 C.ar    1  UNL1        0.0419
     20 C          -0.1830    4.2415   -0.0692 C.ar    1  UNL1       -0.0423
     21 C           1.0499    3.6141   -0.0531 C.ar    1  UNL1       -0.0458
     22 CL         -2.8877    4.2832   -0.0775 Cl      1  UNL1       -0.0835
     23 H          -2.6227   -1.8690    5.1312 H       1  UNL1        0.0778
     24 H          -2.1001   -3.4460    4.4923 H       1  UNL1        0.0778
     25 H          -0.8880   -2.2468    5.0032 H       1  UNL1        0.0778
     26 H          -0.5015   -0.2488    3.5386 H       1  UNL1        0.0852
     27 H          -2.2075    0.1193    3.8899 H       1  UNL1        0.0852
     28 H          -1.3534    1.2247    1.7841 H       1  UNL1        0.0780
     29 H          -2.7430    0.1431    1.5017 H       1  UNL1        0.0780
     30 H          -2.0365   -2.3298    0.4932 H       1  UNL1        0.0780
     31 H          -0.2807   -2.5300    0.2529 H       1  UNL1        0.0780
     32 H           0.1143   -2.3899    2.6696 H       1  UNL1        0.0852
     33 H          -1.1301   -3.6272    2.3698 H       1  UNL1        0.0852
     34 H           0.9367   -2.0955   -2.9041 H       1  UNL1        0.0661
     35 H           2.6315   -1.7224   -4.6403 H       1  UNL1        0.0619
     36 H           4.3500    0.0120   -4.3458 H       1  UNL1        0.0618
     37 H           4.3748    1.3896   -2.3034 H       1  UNL1        0.0630
     38 H          -2.1962    1.5304   -0.0366 H       1  UNL1        0.0641
     39 H          -0.2395    5.3198   -0.0894 H       1  UNL1        0.0632
     40 H           1.9552    4.2029   -0.0614 H       1  UNL1        0.0629
     41 N          -1.8721   -1.8287    3.1697 N.4     1  UNL1        0.2384
     42 H          -2.8121   -1.9372    2.7710 H       1  UNL1        0.2033
@<TRIPOS>UNITY_ATOM_ATTR
41 1
charge 1
@<TRIPOS>BOND
     1     1    23    1
     2     1    24    1
     3     1    25    1
     4     1    41    1
     5     2     3    1
     6     2    26    1
     7     2    27    1
     8     2    41    1
     9     3     4    1
    10     3    28    1
    11     3    29    1
    12     4     5    1
    13     4     7    1
    14     5     6    1
    15     5    30    1
    16     5    31    1
    17     6    32    1
    18     6    33    1
    19     6    41    1
    20     7    17    1
    21     7     8    2
    22     8     9    1
    23     9    14   ar
    24     9    10   ar
    25    10    11   ar
    26    10    34    1
    27    11    12   ar
    28    11    35    1
    29    12    13   ar
    30    12    36    1
    31    13    14   ar
    32    13    37    1
    33    14    15    1
    34    15    16    1
    35    16    21   ar
    36    16    17   ar
    37    17    18   ar
    38    18    19   ar
    39    18    38    1
    40    19    20   ar
    41    19    22    1
    42    20    21   ar
    43    20    39    1
    44    21    40    1
    45    41    42    1
