@<TRIPOS>MOLECULE
ZINC00001281
 29 30 0 0 0
SMALL
GASTEIGER

@<TRIPOS>ATOM
      1 C           4.6488   -4.0985   -1.2986 C.ar    1  UNL1       -0.0614
      2 C           4.6623   -2.7194   -1.1938 C.ar    1  UNL1       -0.0600
      3 C           3.5320   -2.0462   -0.7745 C.ar    1  UNL1       -0.0403
      4 C           2.3830   -2.7566   -0.4488 C.ar    1  UNL1        0.0349
      5 C           2.3729   -4.1415   -0.5555 C.ar    1  UNL1       -0.0208
      6 C           3.5057   -4.8081   -0.9798 C.ar    1  UNL1       -0.0565
      7 C           1.1275   -4.9158   -0.2083 C.3     1  UNL1        0.0138
      8 C           0.2142   -4.9615   -1.4061 C.2     1  UNL1        0.0461
      9 O           0.5410   -4.4208   -2.4361 O.co2   1  UNL1       -0.5495
     10 N           1.2389   -2.0790   -0.0204 N.pl3   1  UNL1       -0.3120
     11 C           1.2171   -0.6807   -0.0099 C.ar    1  UNL1        0.0684
     12 C           0.7180    0.0165   -1.1036 C.ar    1  UNL1        0.0635
     13 C           0.6977    1.3985   -1.0893 C.ar    1  UNL1       -0.0415
     14 C           1.1732    2.0873    0.0115 C.ar    1  UNL1       -0.0589
     15 C           1.6706    1.3970    1.1016 C.ar    1  UNL1       -0.0415
     16 C           1.6942    0.0151    1.0946 C.ar    1  UNL1        0.0635
     17 CL          2.3183   -0.8505    2.4639 Cl      1  UNL1       -0.0816
     18 CL          0.1213   -0.8472   -2.4862 Cl      1  UNL1       -0.0816
     19 H           5.5331   -4.6222   -1.6304 H       1  UNL1        0.0618
     20 H           5.5567   -2.1682   -1.4440 H       1  UNL1        0.0618
     21 H           3.5419   -0.9691   -0.6969 H       1  UNL1        0.0636
     22 H           3.4986   -5.8849   -1.0630 H       1  UNL1        0.0621
     23 H           1.3996   -5.9312    0.0801 H       1  UNL1        0.0374
     24 H           0.6154   -4.4275    0.6207 H       1  UNL1        0.0374
     25 H           0.4596   -2.5784    0.2696 H       1  UNL1        0.1522
     26 H           0.3141    1.9410   -1.9406 H       1  UNL1        0.0633
     27 H           1.1561    3.1671    0.0198 H       1  UNL1        0.0618
     28 H           2.0411    1.9384    1.9595 H       1  UNL1        0.0633
     29 O          -0.9624   -5.6029   -1.3289 O.co2   1  UNL1       -0.5495
@<TRIPOS>UNITY_ATOM_ATTR
29 1
charge -1
@<TRIPOS>BOND
     1     1     6   ar
     2     1     2   ar
     3     1    19    1
     4     2     3   ar
     5     2    20    1
     6     3     4   ar
     7     3    21    1
     8     4     5   ar
     9     4    10    1
    10     5     6   ar
    11     5     7    1
    12     6    22    1
    13     7     8    1
    14     7    23    1
    15     7    24    1
    16     8     9   ar
    17     8    29   ar
    18    10    11    1
    19    10    25    1
    20    11    16   ar
    21    11    12   ar
    22    12    13   ar
    23    12    18    1
    24    13    14   ar
    25    13    26    1
    26    14    15   ar
    27    14    27    1
    28    15    16   ar
    29    15    28    1
    30    16    17    1
