@<TRIPOS>MOLECULE
ZINC03830872
 84 86 0 0 0
SMALL
GASTEIGER

@<TRIPOS>ATOM
      1 C          -1.5746   -4.0864    2.5209 C.3     1  UNL1       -0.0552
      2 C          -3.0800   -4.0861    2.2474 C.3     1  UNL1        0.0422
      3 C          -3.6091   -2.6789    2.3514 C.2     1  UNL1        0.3090
      4 O          -2.8592   -1.7696    2.6171 O.2     1  UNL1       -0.2508
      5 O          -4.9136   -2.4357    2.1490 O.3     1  UNL1       -0.4345
      6 C          -5.3765   -1.0806    2.3888 C.3     1  UNL1        0.2132
      7 H          -4.6153   -0.3731    2.0599 H       1  UNL1        0.1063
      8 C          -6.6698   -0.8378    1.6083 C.3     1  UNL1        0.0164
      9 C          -7.7423   -1.8219    2.0796 C.3     1  UNL1       -0.0570
     10 C          -7.1503    0.5946    1.8502 C.3     1  UNL1       -0.0570
     11 O          -5.6220   -0.9011    3.7851 O.3     1  UNL1       -0.2860
     12 P          -4.5422   -0.2547    4.7893 P.3     1  UNL1        0.2162
     13 O          -3.2602   -0.9848    4.6718 O.2     1  UNL1       -0.2902
     14 C          -5.1560   -0.3760    6.5016 C.3     1  UNL1        0.0250
     15 C          -5.2533   -1.8486    6.9053 C.3     1  UNL1       -0.0440
     16 C          -5.7684   -1.9505    8.3424 C.3     1  UNL1       -0.0486
     17 C          -5.8658   -3.4230    8.7461 C.3     1  UNL1       -0.0277
     18 C          -6.3731   -3.5233   10.1616 C.ar    1  UNL1       -0.0474
     19 C          -5.4799   -3.5382   11.2165 C.ar    1  UNL1       -0.0586
     20 C          -5.9455   -3.6253   12.5152 C.ar    1  UNL1       -0.0615
     21 C          -7.3038   -3.7082   12.7583 C.ar    1  UNL1       -0.0617
     22 C          -8.1967   -3.6987   11.7031 C.ar    1  UNL1       -0.0615
     23 C          -7.7314   -3.6062   10.4047 C.ar    1  UNL1       -0.0586
     24 C          -4.2850    1.4980    4.3587 C.3     1  UNL1        0.1011
     25 C          -3.6519    1.5924    2.9944 C.2     1  UNL1        0.2254
     26 O          -4.3470    1.5726    2.0007 O.2     1  UNL1       -0.2750
     27 N          -2.3134    1.6988    2.8786 N.am    1  UNL1       -0.2925
     28 C          -1.3538    1.7338    3.9985 C.3     1  UNL1        0.0185
     29 C          -0.0171    1.2419    3.3892 C.3     1  UNL1       -0.0203
     30 H           0.0089    0.1538    3.3314 H       1  UNL1        0.0319
     31 C          -0.0685    1.8731    1.9728 C.3     1  UNL1       -0.0245
     32 C          -1.5679    1.7985    1.6153 C.3     1  UNL1        0.0657
     33 H          -1.7593    0.9183    1.0015 H       1  UNL1        0.0562
     34 C          -1.9805    3.0437    0.8735 C.2     1  UNL1        0.0622
     35 O          -2.5515    3.9338    1.4580 O.co2   1  UNL1       -0.5479
     36 C           1.1768    1.7747    4.1840 C.3     1  UNL1       -0.0367
     37 C           2.4764    1.3642    3.4887 C.3     1  UNL1       -0.0499
     38 C           3.6703    1.8969    4.2835 C.3     1  UNL1       -0.0528
     39 C           3.6424    1.3140    5.6978 C.3     1  UNL1       -0.0530
     40 C           2.3428    1.7244    6.3932 C.3     1  UNL1       -0.0528
     41 C           1.1489    1.1917    5.5984 C.3     1  UNL1       -0.0499
     42 H          -1.1919   -5.1043    2.4456 H       1  UNL1        0.0235
     43 H          -1.0722   -3.4543    1.7887 H       1  UNL1        0.0235
     44 H          -1.3873   -3.7010    3.5231 H       1  UNL1        0.0235
     45 H          -3.5824   -4.7183    2.9795 H       1  UNL1        0.0375
     46 H          -3.2673   -4.4715    1.2451 H       1  UNL1        0.0375
     47 H          -6.4849   -0.9841    0.5441 H       1  UNL1        0.0356
     48 H          -7.9273   -1.6756    3.1438 H       1  UNL1        0.0234
     49 H          -8.6637   -1.6489    1.5235 H       1  UNL1        0.0234
     50 H          -7.4001   -2.8423    1.9072 H       1  UNL1        0.0234
     51 H          -7.1959    0.7863    2.9223 H       1  UNL1        0.0234
     52 H          -6.4557    1.2942    1.3853 H       1  UNL1        0.0234
     53 H          -8.1415    0.7236    1.4155 H       1  UNL1        0.0234
     54 H          -4.4680    0.1396    7.1715 H       1  UNL1        0.0364
     55 H          -6.1415    0.0848    6.5678 H       1  UNL1        0.0364
     56 H          -5.9413   -2.3643    6.2353 H       1  UNL1        0.0270
     57 H          -4.2678   -2.3094    6.8390 H       1  UNL1        0.0270
     58 H          -5.0804   -1.4348    9.0123 H       1  UNL1        0.0269
     59 H          -6.7540   -1.4896    8.4086 H       1  UNL1        0.0269
     60 H          -6.5538   -3.9387    8.0761 H       1  UNL1        0.0313
     61 H          -4.8802   -3.8839    8.6798 H       1  UNL1        0.0313
     62 H          -4.4185   -3.4779   11.0263 H       1  UNL1        0.0620
     63 H          -5.2479   -3.6331   13.3396 H       1  UNL1        0.0618
     64 H          -7.6674   -3.7808   13.7727 H       1  UNL1        0.0618
     65 H          -9.2579   -3.7638   11.8931 H       1  UNL1        0.0618
     66 H          -8.4290   -3.5992    9.5803 H       1  UNL1        0.0620
     67 H          -3.6295    1.9609    5.0963 H       1  UNL1        0.0459
     68 H          -5.2447    2.0147    4.3505 H       1  UNL1        0.0459
     69 H          -1.6760    1.0645    4.7963 H       1  UNL1        0.0467
     70 H          -1.2473    2.7510    4.3754 H       1  UNL1        0.0467
     71 H           0.2705    2.9087    1.9995 H       1  UNL1        0.0290
     72 H           0.5252    1.2899    1.2689 H       1  UNL1        0.0290
     73 H           1.1213    2.8619    4.2380 H       1  UNL1        0.0304
     74 H           2.5318    0.2770    3.4347 H       1  UNL1        0.0268
     75 H           2.4962    1.7795    2.4811 H       1  UNL1        0.0268
     76 H           3.6148    2.9842    4.3375 H       1  UNL1        0.0265
     77 H           4.5961    1.6045    3.7882 H       1  UNL1        0.0265
     78 H           4.4930    1.6935    6.2641 H       1  UNL1        0.0265
     79 H           3.6979    0.2267    5.6438 H       1  UNL1        0.0265
     80 H           2.2873    2.8117    6.4472 H       1  UNL1        0.0265
     81 H           2.3230    1.3091    7.4007 H       1  UNL1        0.0265
     82 H           0.2231    1.4841    6.0937 H       1  UNL1        0.0268
     83 H           1.2044    0.1045    5.5443 H       1  UNL1        0.0268
     84 O          -1.7137    3.1640   -0.4364 O.co2   1  UNL1       -0.5479
@<TRIPOS>UNITY_ATOM_ATTR
84 1
charge -1
@<TRIPOS>BOND
     1     1     2    1
     2     1    42    1
     3     1    43    1
     4     1    44    1
     5     2     3    1
     6     2    45    1
     7     2    46    1
     8     3     4    2
     9     3     5    1
    10     5     6    1
    11     6     7    1
    12     6     8    1
    13     6    11    1
    14     8     9    1
    15     8    10    1
    16     8    47    1
    17     9    48    1
    18     9    49    1
    19     9    50    1
    20    10    51    1
    21    10    52    1
    22    10    53    1
    23    11    12    1
    24    12    13    2
    25    12    14    1
    26    12    24    1
    27    14    15    1
    28    14    54    1
    29    14    55    1
    30    15    16    1
    31    15    56    1
    32    15    57    1
    33    16    17    1
    34    16    58    1
    35    16    59    1
    36    17    18    1
    37    17    60    1
    38    17    61    1
    39    18    23   ar
    40    18    19   ar
    41    19    20   ar
    42    19    62    1
    43    20    21   ar
    44    20    63    1
    45    21    22   ar
    46    21    64    1
    47    22    23   ar
    48    22    65    1
    49    23    66    1
    50    24    25    1
    51    24    67    1
    52    24    68    1
    53    25    26    2
    54    25    27   am
    55    27    32    1
    56    27    28    1
    57    28    29    1
    58    28    69    1
    59    28    70    1
    60    29    30    1
    61    29    31    1
    62    29    36    1
    63    31    32    1
    64    31    71    1
    65    31    72    1
    66    32    33    1
    67    32    34    1
    68    34    35   ar
    69    34    84   ar
    70    36    41    1
    71    36    37    1
    72    36    73    1
    73    37    38    1
    74    37    74    1
    75    37    75    1
    76    38    39    1
    77    38    76    1
    78    38    77    1
    79    39    40    1
    80    39    78    1
    81    39    79    1
    82    40    41    1
    83    40    80    1
    84    40    81    1
    85    41    82    1
    86    41    83    1
