@<TRIPOS>MOLECULE
ZINC00388081
 18 18 0 0 0
SMALL
GASTEIGER

@<TRIPOS>ATOM
      1 C          -0.1629   -0.1148    3.0873 C.ar    1  UNL1        0.0486
      2 C           0.0000    1.0800    2.4877 C.ar    1  UNL1        0.0404
      3 N           0.9506    1.7562    3.2038 N.ar    1  UNL1       -0.3480
      4 H           1.2930    2.6765    3.0145 H       1  UNL1        0.1665
      5 C           1.3396    0.9484    4.2137 C.ar    1  UNL1        0.0935
      6 N           0.6718   -0.1701    4.1358 N.ar    1  UNL1       -0.2440
      7 C          -0.7288    1.5792    1.2668 C.3     1  UNL1        0.0291
      8 C          -0.0127    1.0858    0.0080 C.3     1  UNL1       -0.0299
      9 H          -0.8443   -0.8930    2.7768 H       1  UNL1        0.0848
     10 H           2.0809    1.1881    4.9616 H       1  UNL1        0.1027
     11 H          -0.7436    2.6691    1.2728 H       1  UNL1        0.0380
     12 H          -1.7514    1.2020    1.2746 H       1  UNL1        0.0380
     13 H           0.0021   -0.0041    0.0020 H       1  UNL1        0.0817
     14 H           1.0099    1.4631    0.0003 H       1  UNL1        0.0817
     15 H          -0.2694    1.2597   -2.0273 H       1  UNL1        0.1994
     16 H          -1.6917    1.2898   -1.1659 H       1  UNL1        0.1994
     17 N          -0.7207    1.5974   -1.1788 N.4     1  UNL1        0.2188
     18 H          -0.6943    2.6238   -1.1711 H       1  UNL1        0.1994
@<TRIPOS>UNITY_ATOM_ATTR
17 1
charge 1
@<TRIPOS>BOND
     1     1     6   ar
     2     1     2   ar
     3     1     9    1
     4     2     3   ar
     5     2     7    1
     6     3     4    1
     7     3     5   ar
     8     5     6   ar
     9     5    10    1
    10     7     8    1
    11     7    11    1
    12     7    12    1
    13     8    13    1
    14     8    14    1
    15     8    17    1
    16    15    17    1
    17    16    17    1
    18    17    18    1
