@<TRIPOS>MOLECULE
ZINC03830383
 65 69 0 0 0
SMALL
GASTEIGER

@<TRIPOS>ATOM
      1 C          -3.9688    1.9372   -1.3788 C.3     1  UNL1       -0.0359
      2 C          -3.1753    0.9778   -2.2681 C.3     1  UNL1        0.0900
      3 H          -3.8444    0.5197   -2.9964 H       1  UNL1        0.0622
      4 C          -2.5393   -0.1130   -1.4022 C.3     1  UNL1        0.1234
      5 H          -3.3224   -0.6934   -0.9143 H       1  UNL1        0.0676
      6 C          -1.6980   -1.0339   -2.2913 C.3     1  UNL1        0.0093
      7 H          -2.3439   -1.5331   -3.0136 H       1  UNL1        0.0878
      8 C          -0.6514   -0.1949   -3.0308 C.3     1  UNL1        0.0439
      9 C          -1.3603    0.8990   -3.8338 C.3     1  UNL1        0.1655
     10 H          -2.0055    0.4399   -4.5827 H       1  UNL1        0.0912
     11 O          -2.1491    1.7001   -2.9517 O.3     1  UNL1       -0.3454
     12 O          -0.3874    1.7207   -4.4821 O.3     1  UNL1       -0.3431
     13 C          -0.9371    2.6235   -5.4439 C.3     1  UNL1        0.0934
     14 H          -1.9172    2.9578   -5.1034 H       1  UNL1        0.0649
     15 C          -1.0880    1.9029   -6.7816 C.3     1  UNL1        0.0140
     16 C          -1.4725    2.9374   -7.8459 C.3     1  UNL1        0.1300
     17 C          -0.2647    3.8373   -8.0974 C.3     1  UNL1        0.0122
     18 C           0.2761    4.3769   -6.7982 C.ar    1  UNL1        0.0070
     19 C          -0.0262    3.8162   -5.5828 C.ar    1  UNL1        0.0302
     20 C           0.5165    4.3524   -4.4076 C.ar    1  UNL1        0.1345
     21 C           1.3631    5.4578   -4.4585 C.ar    1  UNL1        0.0784
     22 C           1.6710    6.0360   -5.7065 C.ar    1  UNL1        0.0782
     23 C           1.1238    5.4904   -6.8664 C.ar    1  UNL1        0.1322
     24 O           1.4145    6.0415   -8.0708 O.3     1  UNL1       -0.5057
     25 C           2.5636    7.2055   -5.7775 C.2     1  UNL1        0.1982
     26 O           2.8301    7.7041   -6.8539 O.2     1  UNL1       -0.2865
     27 C           3.1342    7.7719   -4.5375 C.ar    1  UNL1        0.0367
     28 C           3.9772    8.8769   -4.5942 C.ar    1  UNL1       -0.0500
     29 C           4.5081    9.4050   -3.4288 C.ar    1  UNL1       -0.0576
     30 C           4.2085    8.8437   -2.2042 C.ar    1  UNL1       -0.0194
     31 C           3.3681    7.7376   -2.1242 C.ar    1  UNL1        0.1283
     32 C           2.8250    7.1938   -3.2923 C.ar    1  UNL1        0.0745
     33 C           1.9331    6.0222   -3.2224 C.2     1  UNL1        0.2016
     34 O           1.6684    5.5218   -2.1460 O.2     1  UNL1       -0.2864
     35 O           3.0766    7.1897   -0.9185 O.3     1  UNL1       -0.5060
     36 O           0.2153    3.7907   -3.2105 O.3     1  UNL1       -0.5057
     37 C          -1.8566    2.2345   -9.1224 C.2     1  UNL1        0.1620
     38 O          -1.4414    1.1232   -9.3482 O.2     1  UNL1       -0.2946
     39 C          -2.7589    2.9183  -10.1170 C.3     1  UNL1       -0.0032
     40 O          -2.5707    3.7243   -7.3802 O.3     1  UNL1       -0.3806
     41 O          -1.7034    0.4888   -0.4117 O.3     1  UNL1       -0.3836
     42 H          -3.2840    2.4759   -0.7239 H       1  UNL1        0.0255
     43 H          -4.5093    2.6484   -2.0034 H       1  UNL1        0.0255
     44 H          -4.6783    1.3707   -0.7757 H       1  UNL1        0.0255
     45 H           0.0246    0.2633   -2.3089 H       1  UNL1        0.0370
     46 H          -0.0843   -0.8339   -3.7076 H       1  UNL1        0.0370
     47 H          -0.1442    1.4297   -7.0525 H       1  UNL1        0.0326
     48 H          -1.8698    1.1471   -6.7056 H       1  UNL1        0.0326
     49 H          -0.5633    4.6692   -8.7353 H       1  UNL1        0.0347
     50 H           0.5132    3.2615   -8.5988 H       1  UNL1        0.0347
     51 H           0.8008    6.7374   -8.3434 H       1  UNL1        0.2922
     52 H           4.2176    9.3237   -5.5476 H       1  UNL1        0.0625
     53 H           5.1621   10.2630   -3.4791 H       1  UNL1        0.0619
     54 H           4.6287    9.2652   -1.3030 H       1  UNL1        0.0654
     55 H           3.6901    6.4946   -0.6438 H       1  UNL1        0.2922
     56 H           0.8669    3.1454   -2.9037 H       1  UNL1        0.2922
     57 H          -2.2049    3.4385  -10.7670 H       1  UNL1        0.0307
     58 H          -3.3415    2.1696  -10.6538 H       1  UNL1        0.0307
     59 H          -3.4329    3.5946   -9.5911 H       1  UNL1        0.0307
     60 H          -2.8531    4.4110   -7.9997 H       1  UNL1        0.2108
     61 H          -0.4619   -2.6583   -2.0234 H       1  UNL1        0.1998
     62 H          -0.4665   -1.5990   -0.7413 H       1  UNL1        0.1998
     63 H          -2.1713    1.0860    0.1878 H       1  UNL1        0.2102
     64 N          -1.0436   -2.0505   -1.4489 N.4     1  UNL1        0.2228
     65 H          -1.7625   -2.6169   -0.9835 H       1  UNL1        0.1998
@<TRIPOS>UNITY_ATOM_ATTR
64 1
charge 1
@<TRIPOS>BOND
     1     1     2    1
     2     1    42    1
     3     1    43    1
     4     1    44    1
     5     2     3    1
     6     2    11    1
     7     2     4    1
     8     4     5    1
     9     4     6    1
    10     4    41    1
    11     6     7    1
    12     6     8    1
    13     6    64    1
    14     8     9    1
    15     8    45    1
    16     8    46    1
    17     9    10    1
    18     9    11    1
    19     9    12    1
    20    12    13    1
    21    13    14    1
    22    13    19    1
    23    13    15    1
    24    15    16    1
    25    15    47    1
    26    15    48    1
    27    16    17    1
    28    16    37    1
    29    16    40    1
    30    17    18    1
    31    17    49    1
    32    17    50    1
    33    18    23   ar
    34    18    19   ar
    35    19    20   ar
    36    20    21   ar
    37    20    36    1
    38    21    33    1
    39    21    22   ar
    40    22    23   ar
    41    22    25    1
    42    23    24    1
    43    24    51    1
    44    25    26    2
    45    25    27    1
    46    27    32   ar
    47    27    28   ar
    48    28    29   ar
    49    28    52    1
    50    29    30   ar
    51    29    53    1
    52    30    31   ar
    53    30    54    1
    54    31    32   ar
    55    31    35    1
    56    32    33    1
    57    33    34    2
    58    35    55    1
    59    36    56    1
    60    37    38    2
    61    37    39    1
    62    39    57    1
    63    39    58    1
    64    39    59    1
    65    40    60    1
    66    41    63    1
    67    61    64    1
    68    62    64    1
    69    64    65    1
