@<TRIPOS>MOLECULE
ZINC03831035
 55 58 0 0 0
SMALL
GASTEIGER

@<TRIPOS>ATOM
      1 C          -0.9342    0.9665   -4.2056 C.3     1  UNL1       -0.0594
      2 C          -1.5564    2.3559   -4.3414 C.3     1  UNL1       -0.0071
      3 H          -1.2286    2.8231   -5.2702 H       1  UNL1        0.0330
      4 C          -1.1548    3.2433   -3.1361 C.3     1  UNL1       -0.0437
      5 C          -2.4266    4.0582   -2.8577 C.3     1  UNL1       -0.0283
      6 H          -2.5362    4.7994   -3.6552 H       1  UNL1        0.0310
      7 C          -2.4657    4.7687   -1.5403 C.3     1  UNL1       -0.0267
      8 H          -3.4287    5.3271   -1.5242 H       1  UNL1        0.0311
      9 C          -1.3797    5.8258   -1.3805 C.3     1  UNL1       -0.0455
     10 C           0.0043    5.2052   -1.3129 C.3     1  UNL1       -0.0302
     11 C           0.0133    3.8624   -0.6367 C.2     1  UNL1       -0.0556
     12 C           1.1960    3.2088   -0.6291 C.2     1  UNL1       -0.0149
     13 C           1.2440    1.8706    0.0002 C.2     1  UNL1        0.1787
     14 O           2.2761    1.4292    0.4919 O.2     1  UNL1       -0.2879
     15 C          -0.0127    1.0853    0.0080 C.2     1  UNL1       -0.0180
     16 C          -1.1740    1.7606    0.0284 C.2     1  UNL1       -0.0698
     17 C          -1.1700    3.2568    0.0262 C.3     1  UNL1        0.0174
     18 C          -2.5040    3.8570   -0.3276 C.3     1  UNL1        0.0331
     19 H          -2.7754    4.3844    0.4775 H       1  UNL1        0.0392
     20 C          -3.5523    2.7937   -0.5560 C.2     1  UNL1        0.1384
     21 O          -4.3870    2.5504    0.2863 O.2     1  UNL1       -0.2970
     22 C          -3.5418    2.0351   -1.8633 C.3     1  UNL1        0.0148
     23 C          -3.5510    3.0129   -3.0388 C.3     1  UNL1        0.0137
     24 C          -3.0941    2.2602   -4.3144 C.3     1  UNL1        0.1343
     25 C          -3.5333    0.8226   -4.3077 C.2     1  UNL1        0.1904
     26 O          -3.7533    0.2633   -3.2602 O.2     1  UNL1       -0.2919
     27 C          -3.6993    0.0793   -5.6081 C.3     1  UNL1        0.1052
     28 O          -4.1207   -1.2597   -5.3409 O.3     1  UNL1       -0.3874
     29 O          -3.6290    2.9153   -5.4740 O.3     1  UNL1       -0.3801
     30 C          -4.9186    3.6767   -3.2252 C.3     1  UNL1       -0.0559
     31 C          -0.9967    3.6222    1.5079 C.3     1  UNL1       -0.0517
     32 H          -1.2659    0.5094   -3.2733 H       1  UNL1        0.0233
     33 H          -1.2453    0.3454   -5.0456 H       1  UNL1        0.0233
     34 H           0.1523    1.0538   -4.2011 H       1  UNL1        0.0233
     35 H          -0.3264    3.8940   -3.4136 H       1  UNL1        0.0272
     36 H          -0.8927    2.6177   -2.2852 H       1  UNL1        0.0272
     37 H          -1.5671    6.4048   -0.4666 H       1  UNL1        0.0271
     38 H          -1.4256    6.5243   -2.2270 H       1  UNL1        0.0271
     39 H           0.6668    5.8745   -0.7464 H       1  UNL1        0.0310
     40 H           0.4208    5.1058   -2.3164 H       1  UNL1        0.0310
     41 H           2.0877    3.6877   -1.0274 H       1  UNL1        0.0655
     42 H           0.0021   -0.0041    0.0020 H       1  UNL1        0.0653
     43 H          -2.1125    1.2073    0.0544 H       1  UNL1        0.0582
     44 H          -4.3559    1.4571   -1.9198 H       1  UNL1        0.0348
     45 H          -2.6500    1.4126   -1.8926 H       1  UNL1        0.0348
     46 H          -4.3870    0.5394   -6.1696 H       1  UNL1        0.0637
     47 H          -2.7483    0.0616   -6.1403 H       1  UNL1        0.0637
     48 H          -4.2478   -1.7978   -6.1343 H       1  UNL1        0.2100
     49 H          -3.3497    2.5217   -6.3120 H       1  UNL1        0.2108
     50 H          -4.8962    4.3125   -4.1103 H       1  UNL1        0.0236
     51 H          -5.6816    2.9082   -3.3491 H       1  UNL1        0.0236
     52 H          -5.1513    4.2818   -2.3490 H       1  UNL1        0.0236
     53 H          -0.9775    4.7067    1.6148 H       1  UNL1        0.0241
     54 H          -1.8290    3.2152    2.0822 H       1  UNL1        0.0241
     55 H          -0.0608    3.2039    1.8782 H       1  UNL1        0.0241
@<TRIPOS>BOND
     1     1     2    1
     2     1    32    1
     3     1    33    1
     4     1    34    1
     5     2     3    1
     6     2    24    1
     7     2     4    1
     8     4     5    1
     9     4    35    1
    10     4    36    1
    11     5     6    1
    12     5    23    1
    13     5     7    1
    14     7     8    1
    15     7    18    1
    16     7     9    1
    17     9    10    1
    18     9    37    1
    19     9    38    1
    20    10    11    1
    21    10    39    1
    22    10    40    1
    23    11    17    1
    24    11    12    2
    25    12    13    1
    26    12    41    1
    27    13    14    2
    28    13    15    1
    29    15    16    2
    30    15    42    1
    31    16    17    1
    32    16    43    1
    33    17    18    1
    34    17    31    1
    35    18    19    1
    36    18    20    1
    37    20    21    2
    38    20    22    1
    39    22    23    1
    40    22    44    1
    41    22    45    1
    42    23    24    1
    43    23    30    1
    44    24    25    1
    45    24    29    1
    46    25    26    2
    47    25    27    1
    48    27    28    1
    49    27    46    1
    50    27    47    1
    51    28    48    1
    52    29    49    1
    53    30    50    1
    54    30    51    1
    55    30    52    1
    56    31    53    1
    57    31    54    1
    58    31    55    1
