@<TRIPOS>MOLECULE
ZINC03831262
 58 61 0 0 0
SMALL
GASTEIGER

@<TRIPOS>ATOM
      1 C          -0.3839   -4.2882    2.5919 C.3     1  UNL1       -0.0312
      2 C          -1.6605   -4.0891    1.7725 C.3     1  UNL1        0.0983
      3 C          -2.8118   -4.7301    2.4998 C.ar    1  UNL1       -0.0014
      4 C          -2.5891   -5.7586    3.3902 C.ar    1  UNL1       -0.0549
      5 C          -3.6550   -6.3795    4.0203 C.ar    1  UNL1       -0.0579
      6 C          -4.9511   -5.9789    3.7612 C.ar    1  UNL1       -0.0194
      7 C          -5.1926   -4.9410    2.8731 C.ar    1  UNL1        0.1280
      8 C          -4.1163   -4.2984    2.2509 C.ar    1  UNL1        0.0693
      9 C          -4.3485   -3.1854    1.3088 C.2     1  UNL1        0.1968
     10 O          -5.4671   -2.9549    0.8859 O.2     1  UNL1       -0.2867
     11 C          -3.2399   -2.3849    0.9021 C.2     1  UNL1        0.0490
     12 C          -3.4192   -1.4869   -0.0706 C.2     1  UNL1        0.1410
     13 C          -2.3310   -0.5700   -0.5752 C.3     1  UNL1        0.1960
     14 C          -1.1817   -0.5376    0.4327 C.3     1  UNL1        0.0789
     15 H          -1.5447   -0.0632    1.3444 H       1  UNL1        0.0423
     16 C          -0.7866   -1.9725    0.7705 C.3     1  UNL1        0.0771
     17 H           0.1348   -1.9735    1.3528 H       1  UNL1        0.0606
     18 C          -1.9187   -2.5948    1.5923 C.3     1  UNL1        0.0503
     19 H          -1.9499   -2.1186    2.5723 H       1  UNL1        0.0408
     20 O          -0.5972   -2.7175   -0.4342 O.3     1  UNL1       -0.3905
     21 C          -0.0059    0.2689   -0.0826 C.3     1  UNL1        0.0465
     22 H           0.8433    0.1217    0.5847 H       1  UNL1        0.0939
     23 C           0.3934   -0.1329   -1.4707 C.2     1  UNL1        0.1579
     24 C          -0.4618   -0.7947   -2.3162 C.2     1  UNL1        0.1248
     25 C          -1.8047   -1.1617   -1.8692 C.2     1  UNL1        0.2109
     26 O          -2.4857   -1.9261   -2.5212 O.2     1  UNL1       -0.2882
     27 C          -0.0251   -1.1360   -3.6794 C.2     1  UNL1        0.2485
     28 O          -0.3868   -0.4572   -4.6218 O.2     1  UNL1       -0.2702
     29 N           0.7756   -2.2007   -3.8838 N.am    1  UNL1       -0.3252
     30 O           1.6283    0.1648   -1.9012 O.2     1  UNL1       -0.5050
     31 C          -0.5918    2.1805    1.2830 C.3     1  UNL1       -0.0426
     32 C           0.6528    2.4951   -0.7699 C.3     1  UNL1       -0.0426
     33 O          -2.8464    0.7457   -0.7880 O.3     1  UNL1       -0.3730
     34 O          -4.6433   -1.3942   -0.6274 O.2     1  UNL1       -0.5073
     35 O          -6.4650   -4.5509    2.6095 O.3     1  UNL1       -0.5060
     36 O          -1.4981   -4.6998    0.4908 O.3     1  UNL1       -0.3835
     37 H          -0.5020   -3.8185    3.5685 H       1  UNL1        0.0261
     38 H          -0.1980   -5.3543    2.7216 H       1  UNL1        0.0261
     39 H           0.4578   -3.8335    2.0695 H       1  UNL1        0.0261
     40 H          -1.5795   -6.0819    3.5970 H       1  UNL1        0.0621
     41 H          -3.4712   -7.1821    4.7193 H       1  UNL1        0.0619
     42 H          -5.7771   -6.4741    4.2501 H       1  UNL1        0.0654
     43 H           0.1713   -2.4402   -0.9514 H       1  UNL1        0.2098
     44 H           1.0087   -2.7816   -3.1428 H       1  UNL1        0.1453
     45 H           1.1189   -2.3860   -4.7719 H       1  UNL1        0.1453
     46 H           1.7432   -0.1652   -2.8382 H       1  UNL1        0.2919
     47 H           0.2844    1.9633    1.8938 H       1  UNL1        0.0778
     48 H          -0.7619    3.2569    1.2613 H       1  UNL1        0.0778
     49 H          -1.4636    1.6835    1.7085 H       1  UNL1        0.0778
     50 H           0.6671    2.2375   -1.8289 H       1  UNL1        0.0778
     51 H           0.4193    3.5538   -0.6567 H       1  UNL1        0.0778
     52 H           1.6300    2.2898   -0.3328 H       1  UNL1        0.0778
     53 H          -3.6182    0.7765   -1.3697 H       1  UNL1        0.2113
     54 H          -4.6348   -0.6882   -1.3355 H       1  UNL1        0.2918
     55 H          -6.8734   -5.0166    1.8669 H       1  UNL1        0.2922
     56 H          -1.3303   -5.6515    0.5271 H       1  UNL1        0.2106
     57 N          -0.3934    1.6951   -0.0989 N.4     1  UNL1        0.2389
     58 H          -1.2739    1.7956   -0.6173 H       1  UNL1        0.2035
@<TRIPOS>UNITY_ATOM_ATTR
57 1
charge 1
@<TRIPOS>BOND
     1     1     2    1
     2     1    37    1
     3     1    38    1
     4     1    39    1
     5     2    18    1
     6     2     3    1
     7     2    36    1
     8     3     8   ar
     9     3     4   ar
    10     4     5   ar
    11     4    40    1
    12     5     6   ar
    13     5    41    1
    14     6     7   ar
    15     6    42    1
    16     7     8   ar
    17     7    35    1
    18     8     9    1
    19     9    10    2
    20     9    11    1
    21    11    18    1
    22    11    12    2
    23    12    13    1
    24    12    34    1
    25    13    25    1
    26    13    14    1
    27    13    33    1
    28    14    15    1
    29    14    16    1
    30    14    21    1
    31    16    17    1
    32    16    18    1
    33    16    20    1
    34    18    19    1
    35    20    43    1
    36    21    22    1
    37    21    23    1
    38    21    57    1
    39    23    24    2
    40    23    30    1
    41    24    25    1
    42    24    27    1
    43    25    26    2
    44    27    28    2
    45    27    29   am
    46    29    44    1
    47    29    45    1
    48    30    46    1
    49    31    47    1
    50    31    48    1
    51    31    49    1
    52    31    57    1
    53    32    50    1
    54    32    51    1
    55    32    52    1
    56    32    57    1
    57    33    53    1
    58    34    54    1
    59    35    55    1
    60    36    56    1
    61    57    58    1
