@<TRIPOS>MOLECULE
ZINC03830555
 54 57 0 0 0
SMALL
GASTEIGER

@<TRIPOS>ATOM
      1 C           3.6304    3.6529   -0.7365 C.3     1  UNL1       -0.0383
      2 C           3.6524    2.1463   -0.7094 C.ar    1  UNL1       -0.0266
      3 C           2.5020    1.4385   -0.3829 C.ar    1  UNL1        0.0369
      4 C           2.5249    0.0291   -0.3592 C.ar    1  UNL1        0.0369
      5 C           3.6957   -0.6523   -0.6606 C.ar    1  UNL1       -0.0080
      6 C           4.8473    0.0561   -0.9876 C.ar    1  UNL1        0.1266
      7 C           4.8279    1.4582   -1.0125 C.ar    1  UNL1        0.0423
      8 C           6.0516    2.2066   -1.3601 C.2     1  UNL1        0.0754
      9 O           6.8300    2.5368   -0.4879 O.co2   1  UNL1       -0.5445
     10 O           5.9899   -0.6097   -1.2820 O.3     1  UNL1       -0.5061
     11 C           1.2923   -0.7165   -0.0114 C.2     1  UNL1        0.1984
     12 O           1.3447   -1.9005    0.2589 O.2     1  UNL1       -0.2865
     13 C           0.0020   -0.0042    0.0032 C.ar    1  UNL1        0.0816
     14 C          -0.0174    1.4086   -0.0202 C.ar    1  UNL1        0.0785
     15 C          -1.2396    2.0852   -0.0115 C.ar    1  UNL1        0.1378
     16 C          -2.4309    1.3658    0.0292 C.ar    1  UNL1        0.0708
     17 C          -2.4153   -0.0154    0.0512 C.ar    1  UNL1        0.1684
     18 C          -1.1980   -0.7114    0.0388 C.ar    1  UNL1        0.1705
     19 O          -1.1888   -2.0674    0.0619 O.3     1  UNL1       -0.5028
     20 O          -3.5853   -0.7029    0.0855 O.3     1  UNL1       -0.5030
     21 C          -3.7473    2.0992    0.0433 C.3     1  UNL1        0.1194
     22 H          -4.5322    1.4304    0.3967 H       1  UNL1        0.0676
     23 C          -4.0815    2.5756   -1.3727 C.3     1  UNL1        0.1139
     24 H          -4.1960    1.7133   -2.0296 H       1  UNL1        0.0649
     25 C          -5.3899    3.3714   -1.3398 C.3     1  UNL1        0.1121
     26 H          -6.2048    2.7227   -1.0184 H       1  UNL1        0.0647
     27 C          -5.2423    4.5350   -0.3546 C.3     1  UNL1        0.1117
     28 H          -6.1870    5.0741   -0.2834 H       1  UNL1        0.0647
     29 C          -4.8633    3.9829    1.0221 C.3     1  UNL1        0.1108
     30 H          -5.6629    3.3390    1.3884 H       1  UNL1        0.0646
     31 O          -3.6547    3.2279    0.9148 O.3     1  UNL1       -0.3609
     32 C          -4.6552    5.1431    1.9975 C.3     1  UNL1        0.0729
     33 O          -4.4148    4.6264    3.3080 O.3     1  UNL1       -0.3924
     34 O          -4.2188    5.4211   -0.8120 O.3     1  UNL1       -0.3865
     35 O          -5.6716    3.8823   -2.6443 O.3     1  UNL1       -0.3865
     36 O          -3.0272    3.4098   -1.8571 O.3     1  UNL1       -0.3862
     37 O          -1.2653    3.4408   -0.0325 O.3     1  UNL1       -0.5055
     38 C           1.2505    2.1548   -0.0597 C.2     1  UNL1        0.1984
     39 O           1.2680    3.3491    0.1709 O.2     1  UNL1       -0.2865
     40 H           3.8931    4.0379    0.2488 H       1  UNL1        0.0278
     41 H           4.3501    4.0136   -1.4714 H       1  UNL1        0.0278
     42 H           2.6319    3.9969   -1.0066 H       1  UNL1        0.0278
     43 H           3.7126   -1.7320   -0.6414 H       1  UNL1        0.0661
     44 H           6.5521   -0.7846   -0.5148 H       1  UNL1        0.2922
     45 H          -1.1688   -2.4455    0.9517 H       1  UNL1        0.2923
     46 H          -3.8677   -0.9546    0.9754 H       1  UNL1        0.2923
     47 H          -3.7988    5.7370    1.6783 H       1  UNL1        0.0584
     48 H          -5.5469    5.7699    2.0120 H       1  UNL1        0.0584
     49 H          -4.2738    5.3077    3.9796 H       1  UNL1        0.2095
     50 H          -4.3934    5.8088   -1.6805 H       1  UNL1        0.2100
     51 H          -6.4845    4.4035   -2.6954 H       1  UNL1        0.2100
     52 H          -3.1727    3.7483   -2.7512 H       1  UNL1        0.2100
     53 H          -1.2869    3.8201   -0.9218 H       1  UNL1        0.2922
     54 O           6.3053    2.5235   -2.6448 O.co2   1  UNL1       -0.5445
@<TRIPOS>UNITY_ATOM_ATTR
54 1
charge -1
@<TRIPOS>BOND
     1     1     2    1
     2     1    40    1
     3     1    41    1
     4     1    42    1
     5     2     7   ar
     6     2     3   ar
     7     3    38    1
     8     3     4   ar
     9     4     5   ar
    10     4    11    1
    11     5     6   ar
    12     5    43    1
    13     6     7   ar
    14     6    10    1
    15     7     8    1
    16     8     9   ar
    17     8    54   ar
    18    10    44    1
    19    11    12    2
    20    11    13    1
    21    13    18   ar
    22    13    14   ar
    23    14    15   ar
    24    14    38    1
    25    15    16   ar
    26    15    37    1
    27    16    17   ar
    28    16    21    1
    29    17    18   ar
    30    17    20    1
    31    18    19    1
    32    19    45    1
    33    20    46    1
    34    21    22    1
    35    21    31    1
    36    21    23    1
    37    23    24    1
    38    23    25    1
    39    23    36    1
    40    25    26    1
    41    25    27    1
    42    25    35    1
    43    27    28    1
    44    27    29    1
    45    27    34    1
    46    29    30    1
    47    29    31    1
    48    29    32    1
    49    32    33    1
    50    32    47    1
    51    32    48    1
    52    33    49    1
    53    34    50    1
    54    35    51    1
    55    36    52    1
    56    37    53    1
    57    38    39    2
