@<TRIPOS>MOLECULE
ZINC03830464
 44 46 0 0 0
SMALL
GASTEIGER

@<TRIPOS>ATOM
      1 C           7.4863    0.2850   -0.0861 C.3     1  UNL1        0.0785
      2 O           6.6424    1.3600    0.3312 O.2     1  UNL1       -0.4966
      3 C           5.3421    1.2931   -0.0265 C.2     1  UNL1        0.1301
      4 CA          4.4670    1.1712    0.9753 C.2     1  UNL1        0.0983
      5 N           3.0756    1.1770    0.7142 N.am    1  UNL1       -0.2505
      6 C           2.4293    0.8828   -0.6018 C.3     1  UNL1        0.1043
      7 H           2.2853   -0.1679   -0.8536 H       1  UNL1        0.0644
      8 CA          1.2428    1.5836    0.0395 C.3     1  UNL1        0.1285
      9 HA          1.1008    2.6059   -0.3112 H       1  UNL1        0.0622
     10 C           1.9529    1.5019    1.3726 C.2     1  UNL1        0.2439
     11 O           1.6417    1.6607    2.5343 O.2     1  UNL1       -0.2731
     12 N           0.0090    0.7953   -0.0089 N.am    1  UNL1       -0.2968
     13 C          -1.1877    1.4121    0.0537 C.2     1  UNL1        0.2662
     14 O          -1.2431    2.6194    0.1552 O.2     1  UNL1       -0.2692
     15 CA         -2.4570    0.6016   -0.0023 C.3     1  UNL1        0.0752
     16 HA         -2.3448   -0.1992   -0.7332 H       1  UNL1        0.0999
     17 C          -2.7342    0.0079    1.3548 C.2     1  UNL1       -0.0131
     18 C          -2.7008   -1.2832    1.4865 C.2     1  UNL1       -0.0750
     19 C          -2.9614   -1.9743    2.7910 C.3     1  UNL1       -0.0161
     20 C          -2.7882   -1.0346    3.9461 C.2     1  UNL1       -0.0839
     21 C          -2.8221    0.2565    3.8145 C.2     1  UNL1       -0.0834
     22 C          -3.0308    0.9340    2.4957 C.3     1  UNL1       -0.0078
     23 S           3.3484    1.8644   -1.8344 S.3     1  UNL1       -0.1277
     24 C           5.0641    1.3652   -1.4926 C.3     1  UNL1        0.0549
     25 C           4.9489    1.0316    2.3493 C.2     1  UNL1        0.0892
     26 O           4.1574    1.0190    3.2732 O.co2   1  UNL1       -0.5432
     27 H           7.0659   -0.6607    0.2559 H       1  UNL1        0.0660
     28 H           7.5562    0.2792   -1.1739 H       1  UNL1        0.0660
     29 H           8.4804    0.4164    0.3411 H       1  UNL1        0.0660
     30 H           0.0533   -0.1703   -0.0900 H       1  UNL1        0.1497
     31 H          -2.4758   -1.8854    0.6186 H       1  UNL1        0.0577
     32 H          -3.9809   -2.3598    2.7937 H       1  UNL1        0.0350
     33 H          -2.2649   -2.8057    2.9003 H       1  UNL1        0.0350
     34 H          -2.6287   -1.4496    4.9304 H       1  UNL1        0.0572
     35 H          -2.6896    0.8692    4.6940 H       1  UNL1        0.0572
     36 H          -2.3757    1.8027    2.4304 H       1  UNL1        0.0354
     37 H          -4.0675    1.2637    2.4281 H       1  UNL1        0.0354
     38 H1         -4.4257    0.9374   -0.5022 H       1  UNL1        0.2005
     39 H2         -3.6999    2.2205    0.2675 H       1  UNL1        0.2005
     40 H           5.7413    2.0885   -1.9469 H       1  UNL1        0.0457
     41 H           5.2424    0.3855   -1.9361 H       1  UNL1        0.0457
     42 N          -3.5666    1.4781   -0.4170 N.4     1  UNL1        0.2305
     43 H3         -3.3432    1.8976   -1.3272 H       1  UNL1        0.2005
     44 OXT         6.2711    0.9167    2.5922 O.co2   1  UNL1       -0.5432
@<TRIPOS>UNITY_ATOM_ATTR
42 1
charge 1
44 1
charge -1
@<TRIPOS>BOND
     1     1     2    1
     2     1    27    1
     3     1    28    1
     4     1    29    1
     5     2     3    1
     6     3    24    1
     7     3     4    2
     8     4     5    1
     9     4    25    1
    10     5    10   am
    11     5     6    1
    12     6     7    1
    13     6     8    1
    14     6    23    1
    15     8     9    1
    16     8    10    1
    17     8    12    1
    18    10    11    2
    19    12    13   am
    20    12    30    1
    21    13    14    2
    22    13    15    1
    23    15    16    1
    24    15    17    1
    25    15    42    1
    26    17    22    1
    27    17    18    2
    28    18    19    1
    29    18    31    1
    30    19    20    1
    31    19    32    1
    32    19    33    1
    33    20    21    2
    34    20    34    1
    35    21    22    1
    36    21    35    1
    37    22    36    1
    38    22    37    1
    39    23    24    1
    40    24    40    1
    41    24    41    1
    42    25    26   ar
    43    25    44   ar
    44    38    42    1
    45    39    42    1
    46    42    43    1
