@<TRIPOS>MOLECULE
ZINC03830886
 47 50 0 0 0
SMALL
GASTEIGER

@<TRIPOS>ATOM
      1 C          -2.2316    3.2575   -0.0922 C.3     1  UNL1       -0.0644
      2 C          -1.2397    3.3233    1.0709 C.3     1  UNL1       -0.0429
      3 C          -0.5540    1.9653    1.2339 C.3     1  UNL1        0.0322
      4 C          -1.5831    0.8888    1.1756 C.2     1  UNL1       -0.0736
      5 C          -2.2903    0.6317    2.2895 C.2     1  UNL1       -0.0613
      6 C          -2.0705    1.3279    3.5080 C.2     1  UNL1       -0.0408
      7 C          -2.8804    1.0677    4.5699 C.2     1  UNL1       -0.0402
      8 C          -4.0569    0.1443    4.3636 C.3     1  UNL1       -0.0202
      9 C          -4.3110   -0.6838    5.6198 C.3     1  UNL1        0.0139
     10 C          -4.2952    0.2099    6.8321 C.2     1  UNL1        0.1567
     11 O          -5.0812    0.0172    7.7389 O.2     1  UNL1       -0.2927
     12 C          -3.3771    1.2617    6.9148 C.2     1  UNL1       -0.0158
     13 C          -2.6374    1.6322    5.8305 C.2     1  UNL1       -0.0406
     14 C          -1.5270    2.6382    6.0186 C.3     1  UNL1       -0.0268
     15 C          -0.3825    2.2916    5.0585 C.3     1  UNL1       -0.0419
     16 C          -0.9289    2.3145    3.6338 C.3     1  UNL1       -0.0116
     17 H          -1.2829    3.3159    3.3889 H       1  UNL1        0.0352
     18 C           0.1258    1.8891    2.6309 C.3     1  UNL1       -0.0214
     19 H           0.4787    0.8817    2.8517 H       1  UNL1        0.0316
     20 C           1.3085    2.8449    2.4460 C.3     1  UNL1       -0.0452
     21 C           1.8219    2.4903    1.0232 C.3     1  UNL1       -0.0115
     22 C           0.6203    1.8668    0.2688 C.3     1  UNL1        0.1353
     23 C           0.3389    2.6272   -0.9597 C.1     1  UNL1       -0.0701
     24 C           0.1144    3.2337   -1.9396 C.1     1  UNL1       -0.1163
     25 O           0.8890    0.4992   -0.0466 O.3     1  UNL1       -0.3757
     26 H          -1.7344    2.8466   -0.9708 H       1  UNL1        0.0230
     27 H          -3.0713    2.6190    0.1821 H       1  UNL1        0.0230
     28 H          -2.5956    4.2602   -0.3164 H       1  UNL1        0.0230
     29 H          -1.7718    3.5741    1.9885 H       1  UNL1        0.0272
     30 H          -0.4893    4.0868    0.8658 H       1  UNL1        0.0272
     31 H          -1.7556    0.3325    0.2662 H       1  UNL1        0.0579
     32 H          -3.0536   -0.1316    2.2567 H       1  UNL1        0.0618
     33 H          -4.9438    0.7359    4.1363 H       1  UNL1        0.0317
     34 H          -3.8473   -0.5258    3.5298 H       1  UNL1        0.0317
     35 H          -5.2034   -1.1296    5.5503 H       1  UNL1        0.0348
     36 H          -3.5334   -1.4413    5.7178 H       1  UNL1        0.0348
     37 H          -3.2518    1.7872    7.8500 H       1  UNL1        0.0655
     38 H          -1.8989    3.6388    5.7982 H       1  UNL1        0.0313
     39 H          -1.1689    2.5995    7.0474 H       1  UNL1        0.0313
     40 H           0.0019    1.2980    5.2887 H       1  UNL1        0.0274
     41 H           0.4158    3.0271    5.1578 H       1  UNL1        0.0274
     42 H           2.0792    2.6541    3.1928 H       1  UNL1        0.0270
     43 H           0.9796    3.8832    2.4898 H       1  UNL1        0.0270
     44 H           2.6374    1.7700    1.0883 H       1  UNL1        0.0303
     45 H           2.1582    3.3918    0.5111 H       1  UNL1        0.0303
     46 H          -0.0863    3.7761   -2.8159 H       1  UNL1        0.1229
     47 H           1.6532    0.3718   -0.6253 H       1  UNL1        0.2114
@<TRIPOS>BOND
     1     1     2    1
     2     1    26    1
     3     1    27    1
     4     1    28    1
     5     2     3    1
     6     2    29    1
     7     2    30    1
     8     3    18    1
     9     3    22    1
    10     3     4    1
    11     4     5    2
    12     4    31    1
    13     5     6    1
    14     5    32    1
    15     6    16    1
    16     6     7    2
    17     7    13    1
    18     7     8    1
    19     8     9    1
    20     8    33    1
    21     8    34    1
    22     9    10    1
    23     9    35    1
    24     9    36    1
    25    10    11    2
    26    10    12    1
    27    12    13    2
    28    12    37    1
    29    13    14    1
    30    14    15    1
    31    14    38    1
    32    14    39    1
    33    15    16    1
    34    15    40    1
    35    15    41    1
    36    16    17    1
    37    16    18    1
    38    18    19    1
    39    18    20    1
    40    20    21    1
    41    20    42    1
    42    20    43    1
    43    21    22    1
    44    21    44    1
    45    21    45    1
    46    22    23    1
    47    22    25    1
    48    23    24    3
    49    24    46    1
    50    25    47    1
