@<TRIPOS>MOLECULE
ZINC01530612
 46 49 0 0 0
SMALL
GASTEIGER

@<TRIPOS>ATOM
      1 C           1.3165    1.4947   -2.5084 C.3     1  UNL1       -0.0029
      2 C           1.6254    1.4857   -1.0334 C.ar    1  UNL1        0.1469
      3 C           0.7552    1.1894   -0.0148 C.ar    1  UNL1        0.1061
      4 C           1.5958    1.3451    1.1910 C.ar    1  UNL1        0.1285
      5 N           2.7778    1.6831    0.7414 N.ar    1  UNL1       -0.0772
      6 O           2.7994    1.7640   -0.4622 O.2     1  UNL1       -0.3586
      7 C           1.1887    1.1566    2.6041 C.ar    1  UNL1        0.0410
      8 C           1.3287    2.2006    3.5185 C.ar    1  UNL1        0.0517
      9 C           0.9418    2.0205    4.8324 C.ar    1  UNL1       -0.0427
     10 C           0.4281    0.8044    5.2446 C.ar    1  UNL1       -0.0590
     11 C           0.2921   -0.2366    4.3441 C.ar    1  UNL1       -0.0427
     12 C           0.6695   -0.0673    3.0261 C.ar    1  UNL1        0.0517
     13 CL          0.4985   -1.3753    1.8975 Cl      1  UNL1       -0.0828
     14 CL          1.9810    3.7252    3.0049 Cl      1  UNL1       -0.0828
     15 C          -0.6665    0.8149   -0.1012 C.2     1  UNL1        0.2502
     16 O          -0.9791   -0.3418   -0.3097 O.2     1  UNL1       -0.2700
     17 N          -1.6210    1.7551    0.0452 N.am    1  UNL1       -0.2976
     18 CA         -3.0352    1.3837   -0.0467 C.3     1  UNL1        0.1279
     19 HA         -3.2000    0.4864   -0.6432 H       1  UNL1        0.0622
     20 C          -3.9563    2.5528   -0.4244 C.3     1  UNL1        0.1003
     21 H          -3.4735    3.5038   -0.6494 H       1  UNL1        0.0640
     22 N          -4.5732    2.3807    0.9140 N.am    1  UNL1       -0.2761
     23 C          -3.7469    1.3644    1.2901 C.2     1  UNL1        0.2401
     24 O          -3.6273    0.7024    2.2993 O.2     1  UNL1       -0.2734
     25 CA         -6.0172    2.1470    0.9085 C.3     1  UNL1        0.0807
     26 HA         -6.5379    3.1027    0.8489 H       1  UNL1        0.0576
     27 C          -6.4113    1.2665   -0.3156 C.3     1  UNL1        0.0366
     28 S          -5.3067    2.0530   -1.5727 S.3     1  UNL1       -0.1275
     29 C          -7.8881    1.4338   -0.6787 C.3     1  UNL1       -0.0486
     30 C          -6.0533   -0.2040   -0.0913 C.3     1  UNL1       -0.0486
     31 C          -6.4141    1.4418    2.1798 C.2     1  UNL1        0.0635
     32 O          -5.6236    1.3435    3.0883 O.co2   1  UNL1       -0.5478
     33 H           0.9767    2.4877   -2.8024 H       1  UNL1        0.0309
     34 H           2.2149    1.2372   -3.0694 H       1  UNL1        0.0309
     35 H           0.5344    0.7655   -2.7203 H       1  UNL1        0.0309
     36 H           1.0452    2.8296    5.5403 H       1  UNL1        0.0632
     37 H           0.1316    0.6670    6.2740 H       1  UNL1        0.0618
     38 H          -0.1104   -1.1836    4.6721 H       1  UNL1        0.0632
     39 H          -1.3717    2.6776    0.2115 H       1  UNL1        0.1499
     40 H          -8.0854    0.9445   -1.6325 H       1  UNL1        0.0244
     41 H          -8.5064    0.9812    0.0965 H       1  UNL1        0.0244
     42 H          -8.1247    2.4948   -0.7588 H       1  UNL1        0.0244
     43 H          -5.0165   -0.2797    0.2362 H       1  UNL1        0.0244
     44 H          -6.7073   -0.6248    0.6725 H       1  UNL1        0.0244
     45 H          -6.1813   -0.7553   -1.0229 H       1  UNL1        0.0244
     46 OXT        -7.6459    0.9228    2.3029 O.co2   1  UNL1       -0.5478
@<TRIPOS>UNITY_ATOM_ATTR
46 1
charge -1
@<TRIPOS>BOND
     1     1     2    1
     2     1    33    1
     3     1    34    1
     4     1    35    1
     5     2     6   ar
     6     2     3   ar
     7     3     4   ar
     8     3    15    1
     9     4     5   ar
    10     4     7    1
    11     5     6   ar
    12     7    12   ar
    13     7     8   ar
    14     8     9   ar
    15     8    14    1
    16     9    10   ar
    17     9    36    1
    18    10    11   ar
    19    10    37    1
    20    11    12   ar
    21    11    38    1
    22    12    13    1
    23    15    16    2
    24    15    17   am
    25    17    18    1
    26    17    39    1
    27    18    19    1
    28    18    23    1
    29    18    20    1
    30    20    21    1
    31    20    28    1
    32    20    22    1
    33    22    23   am
    34    22    25    1
    35    23    24    2
    36    25    26    1
    37    25    27    1
    38    25    31    1
    39    27    28    1
    40    27    29    1
    41    27    30    1
    42    29    40    1
    43    29    41    1
    44    29    42    1
    45    30    43    1
    46    30    44    1
    47    30    45    1
    48    31    32   ar
    49    31    46   ar
