@<TRIPOS>MOLECULE
ZINC03831379
 73 76 0 0 0
SMALL
GASTEIGER

@<TRIPOS>ATOM
      1 C          10.4002   -2.1176   -1.7487 C.3     1  UNL1       -0.0653
      2 C           9.0087   -1.9168   -1.1450 C.3     1  UNL1       -0.0554
      3 C           8.2656   -0.8314   -1.9265 C.3     1  UNL1       -0.0432
      4 C           6.8741   -0.6305   -1.3228 C.3     1  UNL1        0.0450
      5 C           6.1422    0.4385   -2.0925 C.2     1  UNL1        0.3080
      6 O           6.6785    0.9838   -3.0279 O.2     1  UNL1       -0.2508
      7 O           4.8945    0.7849   -1.7390 O.3     1  UNL1       -0.4496
      8 C           4.3059    1.9128   -2.4277 C.3     1  UNL1        0.1796
      9 C           5.1416    3.1969   -2.1914 C.3     1  UNL1       -0.0048
     10 C           4.3822    4.0234   -1.1164 C.3     1  UNL1       -0.0453
     11 C           3.3741    3.0125   -0.5505 C.3     1  UNL1       -0.0281
     12 H           3.9420    2.3081    0.0952 H       1  UNL1        0.0310
     13 C           2.9281    2.2573   -1.8167 C.3     1  UNL1        0.0204
     14 C           2.0730    1.0689   -1.4723 C.3     1  UNL1       -0.0168
     15 C           1.1495    1.3665   -0.2752 C.3     1  UNL1        0.0600
     16 H           1.6121    0.9643    0.6316 H       1  UNL1        0.0596
     17 C           0.9169    2.8576   -0.1185 C.3     1  UNL1        0.0007
     18 H           0.5485    3.2631   -1.0748 H       1  UNL1        0.0340
     19 C           2.2334    3.5544    0.2544 C.3     1  UNL1       -0.0310
     20 H           2.4805    3.3123    1.3080 H       1  UNL1        0.0308
     21 C           2.0900    5.0705    0.1898 C.3     1  UNL1       -0.0458
     22 C           1.0307    5.5124    1.2194 C.3     1  UNL1       -0.0302
     23 C          -0.2335    4.7378    0.8911 C.2     1  UNL1       -0.0559
     24 C          -1.3273    5.3976    0.5468 C.2     1  UNL1       -0.0149
     25 C          -2.5173    4.6572    0.0894 C.2     1  UNL1        0.1787
     26 O          -3.4264    5.2246   -0.4853 O.2     1  UNL1       -0.2879
     27 C          -2.5705    3.2071    0.3502 C.2     1  UNL1       -0.0180
     28 C          -1.4644    2.5714    0.7198 C.2     1  UNL1       -0.0701
     29 C          -0.1466    3.2318    0.9064 C.3     1  UNL1        0.0131
     30 C           0.3227    2.8122    2.2988 C.3     1  UNL1       -0.0520
     31 O          -0.0913    0.6841   -0.4946 O.3     1  UNL1       -0.3914
     32 C           2.2284    3.1683   -2.8294 C.3     1  UNL1       -0.0551
     33 C           4.1596    1.6390   -3.8980 C.2     1  UNL1        0.2142
     34 O           4.3620    2.5196   -4.6992 O.2     1  UNL1       -0.2895
     35 C           3.7601    0.2656   -4.3727 C.3     1  UNL1        0.1542
     36 O           3.8109    0.2211   -5.8231 O.3     1  UNL1       -0.4570
     37 C           3.4812   -0.9407   -6.4090 C.2     1  UNL1        0.3043
     38 O           3.1608   -1.8890   -5.7323 O.2     1  UNL1       -0.2512
     39 C           3.5106   -1.0623   -7.9108 C.3     1  UNL1        0.0332
     40 H          10.9586   -1.1832   -1.6932 H       1  UNL1        0.0230
     41 H          10.9296   -2.8909   -1.1919 H       1  UNL1        0.0230
     42 H          10.3036   -2.4219   -2.7909 H       1  UNL1        0.0230
     43 H           9.1052   -1.6125   -0.1028 H       1  UNL1        0.0263
     44 H           8.4502   -2.8512   -1.2004 H       1  UNL1        0.0263
     45 H           8.1690   -1.1357   -2.9687 H       1  UNL1        0.0270
     46 H           8.8240    0.1030   -1.8710 H       1  UNL1        0.0270
     47 H           6.9707   -0.3262   -0.2806 H       1  UNL1        0.0377
     48 H           6.3157   -1.5650   -1.3783 H       1  UNL1        0.0377
     49 H           6.1332    2.9345   -1.8257 H       1  UNL1        0.0308
     50 H           5.2209    3.7691   -3.1143 H       1  UNL1        0.0308
     51 H           3.8851    4.8815   -1.5583 H       1  UNL1        0.0270
     52 H           5.0712    4.3483   -0.3331 H       1  UNL1        0.0270
     53 H           2.7056    0.2068   -1.2243 H       1  UNL1        0.0297
     54 H           1.4579    0.7891   -2.3380 H       1  UNL1        0.0297
     55 H           1.7727    5.3747   -0.8042 H       1  UNL1        0.0271
     56 H           3.0417    5.5385    0.4375 H       1  UNL1        0.0271
     57 H           0.8455    6.5819    1.1112 H       1  UNL1        0.0310
     58 H           1.3728    5.2964    2.2253 H       1  UNL1        0.0310
     59 H          -1.3473    6.4779    0.5981 H       1  UNL1        0.0655
     60 H          -3.4999    2.6666    0.2378 H       1  UNL1        0.0653
     61 H          -1.5404    1.5143    0.9321 H       1  UNL1        0.0582
     62 H           1.2550    3.3239    2.5375 H       1  UNL1        0.0241
     63 H          -0.4367    3.0790    3.0338 H       1  UNL1        0.0241
     64 H           0.4844    1.7345    2.3183 H       1  UNL1        0.0241
     65 H          -0.0004   -0.2727   -0.6016 H       1  UNL1        0.2098
     66 H           2.9445    3.8877   -3.2265 H       1  UNL1        0.0237
     67 H           1.8286    2.5655   -3.6448 H       1  UNL1        0.0237
     68 H           1.4139    3.7001   -2.3376 H       1  UNL1        0.0237
     69 H           4.3901   -0.4136   -3.9961 H       1  UNL1        0.0780
     70 H           2.7464    0.0460   -4.0377 H       1  UNL1        0.0780
     71 H           4.4995   -1.3922   -8.2293 H       1  UNL1        0.0342
     72 H           2.7644   -1.7893   -8.2312 H       1  UNL1        0.0342
     73 H           3.2893   -0.0933   -8.3582 H       1  UNL1        0.0342
@<TRIPOS>BOND
     1     1     2    1
     2     1    40    1
     3     1    41    1
     4     1    42    1
     5     2     3    1
     6     2    43    1
     7     2    44    1
     8     3     4    1
     9     3    45    1
    10     3    46    1
    11     4     5    1
    12     4    47    1
    13     4    48    1
    14     5     6    2
    15     5     7    1
    16     7     8    1
    17     8    13    1
    18     8     9    1
    19     8    33    1
    20     9    10    1
    21     9    49    1
    22     9    50    1
    23    10    11    1
    24    10    51    1
    25    10    52    1
    26    11    12    1
    27    11    19    1
    28    11    13    1
    29    13    14    1
    30    13    32    1
    31    14    15    1
    32    14    53    1
    33    14    54    1
    34    15    16    1
    35    15    17    1
    36    15    31    1
    37    17    18    1
    38    17    29    1
    39    17    19    1
    40    19    20    1
    41    19    21    1
    42    21    22    1
    43    21    55    1
    44    21    56    1
    45    22    23    1
    46    22    57    1
    47    22    58    1
    48    23    29    1
    49    23    24    2
    50    24    25    1
    51    24    59    1
    52    25    26    2
    53    25    27    1
    54    27    28    2
    55    27    60    1
    56    28    29    1
    57    28    61    1
    58    29    30    1
    59    30    62    1
    60    30    63    1
    61    30    64    1
    62    31    65    1
    63    32    66    1
    64    32    67    1
    65    32    68    1
    66    33    34    2
    67    33    35    1
    68    35    36    1
    69    35    69    1
    70    35    70    1
    71    36    37    1
    72    37    38    2
    73    37    39    1
    74    39    71    1
    75    39    72    1
    76    39    73    1
