@<TRIPOS>MOLECULE
ZINC11592927
 68 72 0 0 0
SMALL
GASTEIGER

@<TRIPOS>ATOM
      1 C          -3.4902    4.4692   -1.4828 C.3     1  UNL1       -0.0359
      2 C          -2.2827    3.7220   -0.9129 C.3     1  UNL1        0.0900
      3 H          -1.5757    4.4388   -0.4953 H       1  UNL1        0.0622
      4 C          -1.6025    2.9247   -2.0289 C.3     1  UNL1        0.1234
      5 H          -1.2317    3.6085   -2.7924 H       1  UNL1        0.0676
      6 C          -0.4316    2.1325   -1.4390 C.3     1  UNL1        0.0093
      7 H           0.3102    2.8229   -1.0376 H       1  UNL1        0.0878
      8 C          -0.9536    1.2313   -0.3158 C.3     1  UNL1        0.0439
      9 C          -1.6585    2.0929    0.7351 C.3     1  UNL1        0.1655
     10 H          -2.0685    1.4517    1.5154 H       1  UNL1        0.0912
     11 O          -2.7168    2.8273    0.1133 O.3     1  UNL1       -0.3454
     12 O          -0.7207    3.0045    1.3110 O.3     1  UNL1       -0.3431
     13 C          -1.1920    3.6534    2.4937 C.3     1  UNL1        0.0934
     14 H          -1.9123    3.0070    2.9952 H       1  UNL1        0.0649
     15 C          -1.8744    4.9646    2.1103 C.3     1  UNL1        0.0140
     16 C          -2.1772    5.7439    3.3957 C.3     1  UNL1        0.1300
     17 C          -0.8546    6.2279    3.9859 C.3     1  UNL1        0.0122
     18 C           0.1241    5.0877    4.1034 C.ar    1  UNL1        0.0070
     19 C          -0.0285    3.9094    3.4170 C.ar    1  UNL1        0.0302
     20 C           0.9167    2.8852    3.5611 C.ar    1  UNL1        0.1345
     21 C           2.0161    3.0490    4.4011 C.ar    1  UNL1        0.0784
     22 C           2.1717    4.2583    5.1081 C.ar    1  UNL1        0.0782
     23 C           1.2235    5.2680    4.9529 C.ar    1  UNL1        0.1322
     24 O           1.3661    6.4342    5.6301 O.3     1  UNL1       -0.5057
     25 C           3.3282    4.4479    6.0003 C.2     1  UNL1        0.1982
     26 O           3.4618    5.4904    6.6115 O.2     1  UNL1       -0.2865
     27 C           4.3255    3.3679    6.1514 C.ar    1  UNL1        0.0367
     28 C           5.4217    3.5381    6.9907 C.ar    1  UNL1       -0.0500
     29 C           6.3535    2.5225    7.1294 C.ar    1  UNL1       -0.0576
     30 C           6.2051    1.3357    6.4409 C.ar    1  UNL1       -0.0192
     31 C           5.1162    1.1439    5.5962 C.ar    1  UNL1        0.1316
     32 C           4.1682    2.1608    5.4455 C.ar    1  UNL1        0.0748
     33 C           3.0099    1.9717    4.5534 C.2     1  UNL1        0.2016
     34 O           2.8745    0.9278    3.9443 O.2     1  UNL1       -0.2864
     35 O           4.9750   -0.0239    4.9217 O.3     1  UNL1       -0.4944
     36 C           5.9825   -1.0166    5.1254 C.3     1  UNL1        0.0788
     37 O           0.7599    1.7243    2.8776 O.3     1  UNL1       -0.5057
     38 C          -3.0547    6.9271    3.0776 C.2     1  UNL1        0.1620
     39 O          -3.0457    7.4046    1.9684 O.2     1  UNL1       -0.2946
     40 C          -3.9434    7.5143    4.1436 C.3     1  UNL1       -0.0032
     41 O          -2.8396    4.8908    4.3314 O.3     1  UNL1       -0.3806
     42 O          -2.5438    2.0219   -2.6128 O.3     1  UNL1       -0.3836
     43 H          -4.1973    3.7522   -1.8999 H       1  UNL1        0.0255
     44 H          -3.9744    5.0368   -0.6881 H       1  UNL1        0.0255
     45 H          -3.1590    5.1508   -2.2662 H       1  UNL1        0.0255
     46 H          -1.6585    0.5085   -0.7266 H       1  UNL1        0.0370
     47 H          -0.1188    0.7040    0.1459 H       1  UNL1        0.0370
     48 H          -1.2123    5.5505    1.4728 H       1  UNL1        0.0326
     49 H          -2.8032    4.7540    1.5802 H       1  UNL1        0.0326
     50 H          -0.4332    6.9978    3.3396 H       1  UNL1        0.0347
     51 H          -1.0353    6.6487    4.9750 H       1  UNL1        0.0347
     52 H           0.9423    6.4387    6.4993 H       1  UNL1        0.2922
     53 H           5.5468    4.4631    7.5340 H       1  UNL1        0.0625
     54 H           7.2029    2.6605    7.7820 H       1  UNL1        0.0619
     55 H           6.9384    0.5515    6.5582 H       1  UNL1        0.0654
     56 H           5.7495   -1.8986    4.5289 H       1  UNL1        0.0660
     57 H           6.9511   -0.6188    4.8227 H       1  UNL1        0.0660
     58 H           6.0155   -1.2897    6.1802 H       1  UNL1        0.0660
     59 H           1.2476    1.6902    2.0433 H       1  UNL1        0.2922
     60 H          -3.4458    8.2281    4.6364 H       1  UNL1        0.0307
     61 H          -4.8313    7.9443    3.6801 H       1  UNL1        0.0307
     62 H          -4.2406    6.7311    4.8409 H       1  UNL1        0.0307
     63 H          -3.0606    5.3217    5.1684 H       1  UNL1        0.2108
     64 H           0.9513    0.7683   -2.1207 H       1  UNL1        0.1998
     65 H          -0.5050    0.7058   -2.9214 H       1  UNL1        0.1998
     66 H          -3.3130    2.4561   -3.0065 H       1  UNL1        0.2102
     67 N           0.1884    1.3241   -2.5036 N.4     1  UNL1        0.2228
     68 H           0.5602    1.9489   -3.2287 H       1  UNL1        0.1998
@<TRIPOS>UNITY_ATOM_ATTR
67 1
charge 1
@<TRIPOS>BOND
     1     1     2    1
     2     1    43    1
     3     1    44    1
     4     1    45    1
     5     2     3    1
     6     2    11    1
     7     2     4    1
     8     4     5    1
     9     4     6    1
    10     4    42    1
    11     6     7    1
    12     6     8    1
    13     6    67    1
    14     8     9    1
    15     8    46    1
    16     8    47    1
    17     9    10    1
    18     9    11    1
    19     9    12    1
    20    12    13    1
    21    13    14    1
    22    13    19    1
    23    13    15    1
    24    15    16    1
    25    15    48    1
    26    15    49    1
    27    16    17    1
    28    16    38    1
    29    16    41    1
    30    17    18    1
    31    17    50    1
    32    17    51    1
    33    18    23   ar
    34    18    19   ar
    35    19    20   ar
    36    20    21   ar
    37    20    37    1
    38    21    33    1
    39    21    22   ar
    40    22    23   ar
    41    22    25    1
    42    23    24    1
    43    24    52    1
    44    25    26    2
    45    25    27    1
    46    27    32   ar
    47    27    28   ar
    48    28    29   ar
    49    28    53    1
    50    29    30   ar
    51    29    54    1
    52    30    31   ar
    53    30    55    1
    54    31    32   ar
    55    31    35    1
    56    32    33    1
    57    33    34    2
    58    35    36    1
    59    36    56    1
    60    36    57    1
    61    36    58    1
    62    37    59    1
    63    38    39    2
    64    38    40    1
    65    40    60    1
    66    40    61    1
    67    40    62    1
    68    41    63    1
    69    42    66    1
    70    64    67    1
    71    65    67    1
    72    67    68    1
