@<TRIPOS>MOLECULE
ZINC03830752
 55 57 0 0 0
SMALL
GASTEIGER

@<TRIPOS>ATOM
      1 C          -2.2893   -2.8796   -3.5683 C.3     1  UNL1       -0.0216
      2 C          -3.3870   -2.2069   -2.7416 C.3     1  UNL1       -0.0237
      3 H          -3.6541   -1.2545   -3.1994 H       1  UNL1        0.0848
      4 C          -4.6188   -3.1139   -2.6955 C.3     1  UNL1       -0.0097
      5 C          -5.7071   -2.4458   -1.8506 C.3     1  UNL1       -0.0432
      6 C          -5.1565   -2.1698   -0.4488 C.3     1  UNL1       -0.0123
      7 C          -3.9091   -1.2902   -0.5600 C.3     1  UNL1       -0.0316
      8 C          -1.6364   -1.2212   -1.3909 C.3     1  UNL1       -0.0276
      9 C          -1.2881   -0.7825    0.0328 C.3     1  UNL1        0.0127
     10 C           0.0061   -0.0106    0.0182 C.ar    1  UNL1       -0.0422
     11 C          -0.0108    1.3615   -0.1533 C.ar    1  UNL1       -0.0566
     12 C           1.1735    2.0719   -0.1667 C.ar    1  UNL1       -0.0402
     13 C           2.3824    1.4067   -0.0081 C.ar    1  UNL1        0.0337
     14 C           2.3958    0.0285    0.1640 C.ar    1  UNL1       -0.0402
     15 C           1.2080   -0.6759    0.1769 C.ar    1  UNL1       -0.0566
     16 N           3.5834    2.1230   -0.0211 N.am    1  UNL1       -0.2815
     17 C           4.6982    1.5603   -0.5281 C.2     1  UNL1        0.2483
     18 O           4.6400    0.4688   -1.0608 O.2     1  UNL1       -0.2699
     19 C           5.9895    2.2688   -0.4367 C.ar    1  UNL1        0.0372
     20 C           6.0575    3.5259    0.1700 C.ar    1  UNL1       -0.0462
     21 C           7.2652    4.1816    0.2576 C.ar    1  UNL1       -0.0192
     22 C           8.4137    3.5997   -0.2663 C.ar    1  UNL1        0.1201
     23 C           8.3494    2.3516   -0.8748 C.ar    1  UNL1       -0.0192
     24 C           7.1466    1.6870   -0.9617 C.ar    1  UNL1       -0.0462
     25 O           9.6010    4.2516   -0.1830 O.3     1  UNL1       -0.4951
     26 C           9.5956    5.5303    0.4549 C.3     1  UNL1        0.0788
     27 H          -2.0216   -3.8318   -3.1105 H       1  UNL1        0.0284
     28 H          -2.6521   -3.0529   -4.5815 H       1  UNL1        0.0284
     29 H          -1.4122   -2.2333   -3.6021 H       1  UNL1        0.0284
     30 H          -4.9908   -3.2741   -3.7074 H       1  UNL1        0.0320
     31 H          -4.3491   -4.0716   -2.2503 H       1  UNL1        0.0320
     32 H          -6.0047   -1.5064   -2.3166 H       1  UNL1        0.0269
     33 H          -6.5708   -3.1070   -1.7801 H       1  UNL1        0.0269
     34 H          -5.9126   -1.6556    0.1445 H       1  UNL1        0.0317
     35 H          -4.8959   -3.1127    0.0320 H       1  UNL1        0.0317
     36 H          -3.5063   -1.1036    0.4355 H       1  UNL1        0.0814
     37 H          -4.1738   -0.3421   -1.0281 H       1  UNL1        0.0814
     38 H          -1.7449   -0.3418   -2.0258 H       1  UNL1        0.0818
     39 H          -0.8398   -1.8548   -1.7810 H       1  UNL1        0.0818
     40 H          -1.1796   -1.6618    0.6677 H       1  UNL1        0.0365
     41 H          -2.0847   -0.1488    0.4228 H       1  UNL1        0.0365
     42 H          -0.9508    1.8775   -0.2814 H       1  UNL1        0.0621
     43 H           1.1597    3.1434   -0.3011 H       1  UNL1        0.0636
     44 H           3.3342   -0.4917    0.2879 H       1  UNL1        0.0636
     45 H           1.2178   -1.7475    0.3106 H       1  UNL1        0.0621
     46 H           3.6141    3.0249    0.3346 H       1  UNL1        0.1551
     47 H           5.1648    3.9806    0.5733 H       1  UNL1        0.0626
     48 H           7.3194    5.1511    0.7303 H       1  UNL1        0.0654
     49 H           9.2441    1.9027   -1.2803 H       1  UNL1        0.0654
     50 H           7.0975    0.7173   -1.4347 H       1  UNL1        0.0626
     51 H           9.2481    5.4223    1.4824 H       1  UNL1        0.0660
     52 H          10.6053    5.9410    0.4541 H       1  UNL1        0.0660
     53 H           8.9294    6.2030   -0.0852 H       1  UNL1        0.0660
     54 N          -2.8917   -2.0000   -1.3640 N.4     1  UNL1        0.2374
     55 H          -2.7074   -2.9147   -0.9355 H       1  UNL1        0.2036
@<TRIPOS>UNITY_ATOM_ATTR
54 1
charge 1
@<TRIPOS>BOND
     1     1     2    1
     2     1    27    1
     3     1    28    1
     4     1    29    1
     5     2     3    1
     6     2     4    1
     7     2    54    1
     8     4     5    1
     9     4    30    1
    10     4    31    1
    11     5     6    1
    12     5    32    1
    13     5    33    1
    14     6     7    1
    15     6    34    1
    16     6    35    1
    17     7    36    1
    18     7    37    1
    19     7    54    1
    20     8     9    1
    21     8    38    1
    22     8    39    1
    23     8    54    1
    24     9    10    1
    25     9    40    1
    26     9    41    1
    27    10    15   ar
    28    10    11   ar
    29    11    12   ar
    30    11    42    1
    31    12    13   ar
    32    12    43    1
    33    13    14   ar
    34    13    16    1
    35    14    15   ar
    36    14    44    1
    37    15    45    1
    38    16    17   am
    39    16    46    1
    40    17    18    2
    41    17    19    1
    42    19    24   ar
    43    19    20   ar
    44    20    21   ar
    45    20    47    1
    46    21    22   ar
    47    21    48    1
    48    22    23   ar
    49    22    25    1
    50    23    24   ar
    51    23    49    1
    52    24    50    1
    53    25    26    1
    54    26    51    1
    55    26    52    1
    56    26    53    1
    57    54    55    1
