@<TRIPOS>MOLECULE
ZINC03831081
 38 40 0 0 0
SMALL
GASTEIGER

@<TRIPOS>ATOM
      1 C          -0.0127    1.0858    0.0080 C.3     1  UNL1        0.0004
      2 N          -0.6984    1.5583    1.2133 N.pl3   1  UNL1       -0.3359
      3 C           0.0634    1.8061    2.4399 C.3     1  UNL1        0.0004
      4 C          -2.0734    1.7717    1.1931 C.ar    1  UNL1        0.0342
      5 C          -2.7240    2.2187    2.3530 C.ar    1  UNL1       -0.0383
      6 C          -4.0568    2.4498    2.3951 C.ar    1  UNL1       -0.0295
      7 C          -4.8522    2.2296    1.2407 C.ar    1  UNL1        0.1246
      8 C          -4.1537    1.7544    0.0328 C.ar    1  UNL1        0.2423
      9 C          -2.7860    1.5356    0.0315 C.ar    1  UNL1        0.0216
     10 S          -5.1541    1.4977   -1.3518 S.2     1  UNL1        0.2920
     11 C          -6.8081    1.8640   -1.0138 C.ar    1  UNL1        0.2423
     12 C          -7.8191    1.7427   -1.9527 C.ar    1  UNL1        0.0216
     13 C          -9.1130    2.0608   -1.5820 C.ar    1  UNL1        0.0342
     14 C          -9.3968    2.4982   -0.2794 C.ar    1  UNL1       -0.0383
     15 C          -8.4390    2.6304    0.6674 C.ar    1  UNL1       -0.0295
     16 C          -7.0886    2.3220    0.3590 C.ar    1  UNL1        0.1246
     17 N          -6.1473    2.4453    1.2662 N.ar    1  UNL1       -0.2376
     18 N         -10.1437    1.9455   -2.5098 N.pl3   1  UNL1       -0.3359
     19 C          -9.8555    1.4890   -3.8717 C.3     1  UNL1        0.0004
     20 C         -11.5169    2.2806   -2.1247 C.3     1  UNL1        0.0004
     21 H           0.0021   -0.0041    0.0020 H       1  UNL1        0.0428
     22 H           1.0099    1.4631    0.0003 H       1  UNL1        0.0428
     23 H          -0.5399    1.4469   -0.8751 H       1  UNL1        0.0428
     24 H           0.4076    2.8402    2.4512 H       1  UNL1        0.0428
     25 H          -0.5735    1.6257    3.3059 H       1  UNL1        0.0428
     26 H           0.9229    1.1366    2.4753 H       1  UNL1        0.0428
     27 H          -2.1386    2.3888    3.2445 H       1  UNL1        0.0637
     28 H          -4.5157    2.7981    3.3086 H       1  UNL1        0.0641
     29 H          -2.2853    1.1876   -0.8599 H       1  UNL1        0.0688
     30 H          -7.6011    1.4064   -2.9556 H       1  UNL1        0.0688
     31 H         -10.4179    2.7388   -0.0229 H       1  UNL1        0.0637
     32 H          -8.7024    2.9706    1.6580 H       1  UNL1        0.0641
     33 H          -9.9392    0.4031   -3.9163 H       1  UNL1        0.0428
     34 H         -10.5687    1.9371   -4.5636 H       1  UNL1        0.0428
     35 H          -8.8443    1.7872   -4.1486 H       1  UNL1        0.0428
     36 H         -11.7023    3.3363   -2.3224 H       1  UNL1        0.0428
     37 H         -12.2145    1.6746   -2.7029 H       1  UNL1        0.0428
     38 H         -11.6555    2.0800   -1.0623 H       1  UNL1        0.0428
@<TRIPOS>UNITY_ATOM_ATTR
10 1
charge 1
@<TRIPOS>BOND
     1     1     2    1
     2     1    21    1
     3     1    22    1
     4     1    23    1
     5     2     3    1
     6     2     4    1
     7     3    24    1
     8     3    25    1
     9     3    26    1
    10     4     9   ar
    11     4     5   ar
    12     5     6   ar
    13     5    27    1
    14     6     7   ar
    15     6    28    1
    16     7    17   ar
    17     7     8   ar
    18     8     9   ar
    19     8    10   ar
    20     9    29    1
    21    10    11   ar
    22    11    16   ar
    23    11    12   ar
    24    12    13   ar
    25    12    30    1
    26    13    14   ar
    27    13    18    1
    28    14    15   ar
    29    14    31    1
    30    15    16   ar
    31    15    32    1
    32    16    17   ar
    33    18    19    1
    34    18    20    1
    35    19    33    1
    36    19    34    1
    37    19    35    1
    38    20    36    1
    39    20    37    1
    40    20    38    1
