@<TRIPOS>MOLECULE
ZINC11592623
 58 61 0 0 0
SMALL
GASTEIGER

@<TRIPOS>ATOM
      1 C          -0.2102    0.9210   -2.6265 C.3     1  UNL1       -0.0312
      2 C           1.0230    0.0953   -2.2546 C.3     1  UNL1        0.0983
      3 C           1.7271   -0.3389   -3.5113 C.ar    1  UNL1       -0.0014
      4 C           1.4540   -1.5713   -4.0664 C.ar    1  UNL1       -0.0549
      5 C           2.0611   -1.9534   -5.2510 C.ar    1  UNL1       -0.0579
      6 C           2.9435   -1.1053   -5.8914 C.ar    1  UNL1       -0.0194
      7 C           3.2368    0.1342   -5.3418 C.ar    1  UNL1        0.1280
      8 C           2.6411    0.5136   -4.1339 C.ar    1  UNL1        0.0693
      9 C           2.9455    1.8225   -3.5227 C.2     1  UNL1        0.1968
     10 O           3.5290    2.6826   -4.1576 O.2     1  UNL1       -0.2867
     11 C           2.5441    2.0616   -2.1743 C.2     1  UNL1        0.0490
     12 C           2.7342    3.2949   -1.6724 C.2     1  UNL1        0.1410
     13 C           2.3269    3.5909   -0.2449 C.3     1  UNL1        0.1960
     14 C           0.9954    2.8550   -0.0063 C.3     1  UNL1        0.0789
     15 H           0.2637    3.1665   -0.7518 H       1  UNL1        0.0423
     16 C           1.2368    1.3538   -0.1174 C.3     1  UNL1        0.0771
     17 H           1.8321    1.0351    0.7383 H       1  UNL1        0.0606
     18 C           1.9526    0.9413   -1.3834 C.3     1  UNL1        0.0503
     19 H           2.7747    0.2895   -1.0876 H       1  UNL1        0.0408
     20 O          -0.0248    0.6844   -0.0682 O.3     1  UNL1       -0.3905
     21 C           0.4940    3.1712    1.4040 C.3     1  UNL1        0.0465
     22 H           1.1740    2.7276    2.1313 H       1  UNL1        0.0939
     23 C           0.4196    4.6488    1.6431 C.2     1  UNL1        0.1579
     24 C           1.1601    5.5493    0.9177 C.2     1  UNL1        0.1248
     25 C           2.0740    5.0822   -0.1393 C.2     1  UNL1        0.2109
     26 O           2.5922    5.8578   -0.9160 O.2     1  UNL1       -0.2882
     27 C           1.0598    6.9882    1.2093 C.2     1  UNL1        0.2485
     28 O           0.3467    7.6988    0.5266 O.2     1  UNL1       -0.2702
     29 N           1.7582    7.5187    2.2327 N.am    1  UNL1       -0.3252
     30 O          -0.3998    5.1081    2.6005 O.2     1  UNL1       -0.5050
     31 C          -1.2266    2.5695    2.9977 C.3     1  UNL1       -0.0426
     32 C          -1.8400    3.3063    0.7743 C.3     1  UNL1       -0.0426
     33 O           3.3293    3.1667    0.6810 O.3     1  UNL1       -0.3730
     34 O           3.2832    4.2608   -2.4356 O.2     1  UNL1       -0.5073
     35 O           4.0960    0.9740   -5.9721 O.3     1  UNL1       -0.5060
     36 O           0.6120   -1.0604   -1.5213 O.3     1  UNL1       -0.3835
     37 H           0.0878    1.7503   -3.2679 H       1  UNL1        0.0261
     38 H          -0.9237    0.2899   -3.1564 H       1  UNL1        0.0261
     39 H          -0.6733    1.3109   -1.7201 H       1  UNL1        0.0261
     40 H           0.7638   -2.2413   -3.5753 H       1  UNL1        0.0621
     41 H           1.8435   -2.9217   -5.6771 H       1  UNL1        0.0619
     42 H           3.4047   -1.4070   -6.8202 H       1  UNL1        0.0654
     43 H          -0.4917    0.7865    0.7724 H       1  UNL1        0.2098
     44 H           2.3816    6.9679    2.7315 H       1  UNL1        0.1453
     45 H           1.6373    8.4513    2.4705 H       1  UNL1        0.1453
     46 H          -0.3401    6.1055    2.6400 H       1  UNL1        0.2919
     47 H          -1.3765    3.5910    3.3473 H       1  UNL1        0.0778
     48 H          -2.1517    2.0054    3.1162 H       1  UNL1        0.0778
     49 H          -0.4362    2.0980    3.5816 H       1  UNL1        0.0778
     50 H          -1.5680    3.2452   -0.2795 H       1  UNL1        0.0778
     51 H          -2.8208    2.8545    0.9231 H       1  UNL1        0.0778
     52 H          -1.8711    4.3516    1.0815 H       1  UNL1        0.0778
     53 H           4.1881    3.5925    0.5534 H       1  UNL1        0.2113
     54 H           3.3495    5.1066   -1.9062 H       1  UNL1        0.2918
     55 H           5.0199    0.8608   -5.7101 H       1  UNL1        0.2922
     56 H           0.0188   -1.6464   -2.0110 H       1  UNL1        0.2106
     57 N          -0.8421    2.5615    1.5706 N.4     1  UNL1        0.2389
     58 H          -0.8090    1.5901    1.2395 H       1  UNL1        0.2035
@<TRIPOS>UNITY_ATOM_ATTR
57 1
charge 1
@<TRIPOS>BOND
     1     1     2    1
     2     1    37    1
     3     1    38    1
     4     1    39    1
     5     2    18    1
     6     2     3    1
     7     2    36    1
     8     3     8   ar
     9     3     4   ar
    10     4     5   ar
    11     4    40    1
    12     5     6   ar
    13     5    41    1
    14     6     7   ar
    15     6    42    1
    16     7     8   ar
    17     7    35    1
    18     8     9    1
    19     9    10    2
    20     9    11    1
    21    11    18    1
    22    11    12    2
    23    12    13    1
    24    12    34    1
    25    13    25    1
    26    13    14    1
    27    13    33    1
    28    14    15    1
    29    14    16    1
    30    14    21    1
    31    16    17    1
    32    16    18    1
    33    16    20    1
    34    18    19    1
    35    20    43    1
    36    21    22    1
    37    21    23    1
    38    21    57    1
    39    23    24    2
    40    23    30    1
    41    24    25    1
    42    24    27    1
    43    25    26    2
    44    27    28    2
    45    27    29   am
    46    29    44    1
    47    29    45    1
    48    30    46    1
    49    31    47    1
    50    31    48    1
    51    31    49    1
    52    31    57    1
    53    32    50    1
    54    32    51    1
    55    32    52    1
    56    32    57    1
    57    33    53    1
    58    34    54    1
    59    35    55    1
    60    36    56    1
    61    57    58    1
