@<TRIPOS>MOLECULE
ZINC11592963
 64 68 0 0 0
SMALL
GASTEIGER

@<TRIPOS>ATOM
      1 C          -1.1244   -2.5528    0.3060 C.3     1  UNL1       -0.0359
      2 C          -0.1947   -1.6840    1.1555 C.3     1  UNL1        0.0900
      3 H           0.6066   -2.3002    1.5633 H       1  UNL1        0.0622
      4 C          -0.9898   -1.0555    2.3029 C.3     1  UNL1        0.1234
      5 H          -1.8159   -0.4718    1.8967 H       1  UNL1        0.0676
      6 C          -0.0660   -0.1405    3.1127 C.3     1  UNL1        0.0093
      7 H           0.7317   -0.7324    3.5613 H       1  UNL1        0.0878
      8 C           0.5382    0.9129    2.1787 C.3     1  UNL1        0.0439
      9 C           1.2742    0.2081    1.0362 C.3     1  UNL1        0.1655
     10 H           2.0947   -0.3833    1.4424 H       1  UNL1        0.0912
     11 O           0.3654   -0.6501    0.3435 O.3     1  UNL1       -0.3454
     12 O           1.7930    1.1837    0.1300 O.3     1  UNL1       -0.3431
     13 C           2.6993    0.6530   -0.8390 C.3     1  UNL1        0.0934
     14 H           2.3945   -0.3608   -1.0985 H       1  UNL1        0.0649
     15 C           4.1061    0.6183   -0.2462 C.3     1  UNL1        0.0140
     16 C           5.0910    0.2533   -1.3634 C.3     1  UNL1        0.1300
     17 C           5.1756    1.4305   -2.3322 C.3     1  UNL1        0.0122
     18 C           3.7982    1.8641   -2.7641 C.ar    1  UNL1        0.0070
     19 C           2.6644    1.5140   -2.0756 C.ar    1  UNL1        0.0302
     20 C           1.4102    1.9582   -2.5157 C.ar    1  UNL1        0.1345
     21 C           1.3001    2.7531   -3.6549 C.ar    1  UNL1        0.0783
     22 C           2.4646    3.1091   -4.3651 C.ar    1  UNL1        0.0782
     23 C           3.7043    2.6610   -3.9132 C.ar    1  UNL1        0.1322
     24 O           4.8291    2.9982   -4.5914 O.3     1  UNL1       -0.5057
     25 C           2.3653    3.9482   -5.5717 C.2     1  UNL1        0.1981
     26 O           3.3697    4.2554   -6.1841 O.2     1  UNL1       -0.2865
     27 C           1.0426    4.4157   -6.0371 C.ar    1  UNL1        0.0332
     28 C           0.9390    5.2087   -7.1766 C.ar    1  UNL1       -0.0502
     29 C          -0.3033    5.6407   -7.6054 C.ar    1  UNL1       -0.0610
     30 C          -1.4459    5.2900   -6.9091 C.ar    1  UNL1       -0.0610
     31 C          -1.3610    4.5034   -5.7744 C.ar    1  UNL1       -0.0502
     32 C          -0.1188    4.0602   -5.3288 C.ar    1  UNL1        0.0332
     33 C          -0.0184    3.2194   -4.1174 C.2     1  UNL1        0.1981
     34 O          -1.0223    2.9128   -3.5041 O.2     1  UNL1       -0.2865
     35 O           0.2944    1.6111   -1.8276 O.3     1  UNL1       -0.5057
     36 C           4.6005   -0.9706   -2.0930 C.2     1  UNL1        0.1620
     37 O           3.9513   -0.8511   -3.1043 O.2     1  UNL1       -0.2946
     38 C           4.9200   -2.3438   -1.5607 C.3     1  UNL1       -0.0032
     39 O           6.3805   -0.0034   -0.8036 O.3     1  UNL1       -0.3806
     40 O          -1.5039   -2.0863    3.1485 O.3     1  UNL1       -0.3836
     41 H          -0.5659   -2.9720   -0.5309 H       1  UNL1        0.0255
     42 H          -1.5249   -3.3616    0.9171 H       1  UNL1        0.0255
     43 H          -1.9449   -1.9436   -0.0734 H       1  UNL1        0.0255
     44 H           1.2398    1.5342    2.7354 H       1  UNL1        0.0370
     45 H          -0.2570    1.5364    1.7700 H       1  UNL1        0.0370
     46 H           4.3579    1.5980    0.1599 H       1  UNL1        0.0326
     47 H           4.1532   -0.1307    0.5443 H       1  UNL1        0.0326
     48 H           5.7501    1.1331   -3.2094 H       1  UNL1        0.0347
     49 H           5.6768    2.2643   -1.8404 H       1  UNL1        0.0347
     50 H           5.2369    3.8222   -4.2918 H       1  UNL1        0.2922
     51 H           1.8271    5.4865   -7.7248 H       1  UNL1        0.0625
     52 H          -0.3815    6.2562   -8.4894 H       1  UNL1        0.0618
     53 H          -2.4104    5.6329   -7.2534 H       1  UNL1        0.0618
     54 H          -2.2570    4.2332   -5.2352 H       1  UNL1        0.0625
     55 H           0.0321    2.2533   -1.1539 H       1  UNL1        0.2922
     56 H           4.5391   -2.4418   -0.6413 H       1  UNL1        0.0307
     57 H           4.4850   -3.0980   -2.2165 H       1  UNL1        0.0307
     58 H           6.0013   -2.4760   -1.5221 H       1  UNL1        0.0307
     59 H           7.0568   -0.2236   -1.4587 H       1  UNL1        0.2108
     60 H          -0.2495    1.1349    4.7183 H       1  UNL1        0.1998
     61 H          -1.6207    1.0309    3.7830 H       1  UNL1        0.1998
     62 H          -2.0944   -2.7060    2.6987 H       1  UNL1        0.2102
     63 N          -0.8455    0.5053    4.1836 N.4     1  UNL1        0.2228
     64 H          -1.2190   -0.2163    4.8113 H       1  UNL1        0.1998
@<TRIPOS>UNITY_ATOM_ATTR
63 1
charge 1
@<TRIPOS>BOND
     1     1     2    1
     2     1    41    1
     3     1    42    1
     4     1    43    1
     5     2     3    1
     6     2    11    1
     7     2     4    1
     8     4     5    1
     9     4     6    1
    10     4    40    1
    11     6     7    1
    12     6     8    1
    13     6    63    1
    14     8     9    1
    15     8    44    1
    16     8    45    1
    17     9    10    1
    18     9    11    1
    19     9    12    1
    20    12    13    1
    21    13    14    1
    22    13    19    1
    23    13    15    1
    24    15    16    1
    25    15    46    1
    26    15    47    1
    27    16    17    1
    28    16    36    1
    29    16    39    1
    30    17    18    1
    31    17    48    1
    32    17    49    1
    33    18    23   ar
    34    18    19   ar
    35    19    20   ar
    36    20    21   ar
    37    20    35    1
    38    21    33    1
    39    21    22   ar
    40    22    23   ar
    41    22    25    1
    42    23    24    1
    43    24    50    1
    44    25    26    2
    45    25    27    1
    46    27    32   ar
    47    27    28   ar
    48    28    29   ar
    49    28    51    1
    50    29    30   ar
    51    29    52    1
    52    30    31   ar
    53    30    53    1
    54    31    32   ar
    55    31    54    1
    56    32    33    1
    57    33    34    2
    58    35    55    1
    59    36    37    2
    60    36    38    1
    61    38    56    1
    62    38    57    1
    63    38    58    1
    64    39    59    1
    65    40    62    1
    66    60    63    1
    67    61    63    1
    68    63    64    1
