@<TRIPOS>MOLECULE
ZINC03978083
 87 93 0 0 0
SMALL
GASTEIGER

@<TRIPOS>ATOM
      1 C          -0.0415   12.4502    3.6774 C.3     1  UNL1       -0.0425
      2 C           1.2201   13.6546    2.0577 C.3     1  UNL1       -0.0275
      3 C           2.6133   14.0835    1.6120 C.3     1  UNL1        0.0133
      4 C           3.5806   12.9382    1.5903 C.ar    1  UNL1       -0.0302
      5 C           4.8518   13.1407    1.0756 C.ar    1  UNL1       -0.0125
      6 C           5.7437   12.0981    0.9846 C.ar    1  UNL1        0.1624
      7 C           5.3950   10.8016    1.4174 C.ar    1  UNL1        0.1704
      8 C           4.1325   10.6176    1.9562 C.ar    1  UNL1       -0.0069
      9 C           3.2399   11.6760    2.0415 C.ar    1  UNL1        0.0075
     10 C           1.8694   11.4386    2.6194 C.3     1  UNL1        0.0092
     11 H           1.9514   10.7054    3.4188 H       1  UNL1        0.0907
     12 C           0.9415   10.9363    1.5188 C.3     1  UNL1        0.0199
     13 C           1.4395    9.5679    1.1030 C.ar    1  UNL1       -0.0415
     14 C           1.6612    8.6147    2.0807 C.ar    1  UNL1       -0.0549
     15 C           2.1859    7.3881    1.7356 C.ar    1  UNL1       -0.0191
     16 C           2.4903    7.1165    0.4091 C.ar    1  UNL1        0.1286
     17 C           2.2208    8.0713   -0.5713 C.ar    1  UNL1       -0.0191
     18 C           1.6970    9.2966   -0.2230 C.ar    1  UNL1       -0.0549
     19 O           3.0155    5.9593    0.0298 O.3     1  UNL1       -0.4517
     20 C           2.6574    4.6904    0.1608 C.ar    1  UNL1        0.1820
     21 C           3.7110    3.7568    0.1819 C.ar    1  UNL1        0.0499
     22 C           3.4071    2.4185    0.2130 C.ar    1  UNL1       -0.0266
     23 C           2.1001    1.9831    0.3321 C.ar    1  UNL1       -0.0123
     24 C           1.0651    2.9016    0.3646 C.ar    1  UNL1        0.1653
     25 C           1.3506    4.2591    0.2443 C.ar    1  UNL1        0.2021
     26 O           0.3313    5.1617    0.2066 O.3     1  UNL1       -0.5009
     27 O          -0.2185    2.4800    0.4909 O.3     1  UNL1       -0.4913
     28 C          -0.4302    1.0718    0.6095 C.3     1  UNL1        0.0790
     29 C           4.5277    1.4111    0.1175 C.3     1  UNL1        0.0135
     30 C           5.6246    2.0740   -0.7194 C.3     1  UNL1       -0.0259
     31 N           6.1286    3.2693   -0.0253 N.4     1  UNL1        0.2450
     32 C           5.1305    4.2919    0.1698 C.3     1  UNL1        0.0143
     33 H           5.1932    5.0047   -0.6783 H       1  UNL1        0.0909
     34 C           5.2956    5.1019    1.4499 C.3     1  UNL1        0.0202
     35 C           6.2873    6.2304    1.3733 C.ar    1  UNL1       -0.0380
     36 C           7.6471    6.0008    1.3989 C.ar    1  UNL1       -0.0547
     37 C           8.5309    7.0670    1.3243 C.ar    1  UNL1       -0.0162
     38 C           8.0586    8.3600    1.2646 C.ar    1  UNL1        0.1591
     39 C           6.6692    8.6168    1.2884 C.ar    1  UNL1        0.1700
     40 C           5.8097    7.5340    1.3189 C.ar    1  UNL1       -0.0123
     41 O           6.3087    9.8770    1.2673 O.3     1  UNL1       -0.4487
     42 O           8.9309    9.4025    1.1894 O.3     1  UNL1       -0.5033
     43 C           7.1920    3.8283   -0.8987 C.3     1  UNL1       -0.0409
     44 C           6.7691    2.8246    1.2181 C.3     1  UNL1       -0.0409
     45 O           6.9903   12.3135    0.4769 O.3     1  UNL1       -0.4914
     46 C           7.3000   13.6448    0.0602 C.3     1  UNL1        0.0790
     47 H          -0.0382   11.6480    4.4153 H       1  UNL1        0.0778
     48 H          -0.4556   13.3538    4.1249 H       1  UNL1        0.0778
     49 H          -0.6510   12.1556    2.8232 H       1  UNL1        0.0778
     50 H           0.6645   14.5235    2.4119 H       1  UNL1        0.0818
     51 H           0.6859   13.1667    1.2604 H       1  UNL1        0.0818
     52 H           2.9809   14.8513    2.2939 H       1  UNL1        0.0365
     53 H           2.5467   14.5057    0.6088 H       1  UNL1        0.0365
     54 H           5.1406   14.1252    0.7431 H       1  UNL1        0.0658
     55 H           3.8369    9.6386    2.3013 H       1  UNL1        0.0660
     56 H           0.9997   11.5922    0.6473 H       1  UNL1        0.0372
     57 H          -0.0855   10.8256    1.8409 H       1  UNL1        0.0372
     58 H           1.4294    8.8332    3.1118 H       1  UNL1        0.0621
     59 H           2.3611    6.6403    2.4958 H       1  UNL1        0.0654
     60 H           2.4152    7.8498   -1.6103 H       1  UNL1        0.0654
     61 H           1.5062   10.0362   -0.9843 H       1  UNL1        0.0621
     62 H           1.8840    0.9220    0.3975 H       1  UNL1        0.0658
     63 H           0.0676    5.4939    1.0756 H       1  UNL1        0.2924
     64 H           0.0886    0.6995    1.4928 H       1  UNL1        0.0660
     65 H          -1.4975    0.8714    0.7035 H       1  UNL1        0.0660
     66 H          -0.0431    0.5703   -0.2775 H       1  UNL1        0.0660
     67 H           4.1636    0.5237   -0.4060 H       1  UNL1        0.0365
     68 H           4.8712    1.1299    1.1008 H       1  UNL1        0.0365
     69 H           5.2237    2.3646   -1.6920 H       1  UNL1        0.0818
     70 H           6.4495    1.3705   -0.8644 H       1  UNL1        0.0818
     71 H           5.4652    4.5011    2.3330 H       1  UNL1        0.0372
     72 H           4.3097    5.5855    1.6516 H       1  UNL1        0.0372
     73 H           8.0538    5.0057    1.4738 H       1  UNL1        0.0621
     74 H           9.5968    6.8741    1.3104 H       1  UNL1        0.0655
     75 H           4.7440    7.7029    1.3064 H       1  UNL1        0.0658
     76 H           9.2062    9.7479    2.0496 H       1  UNL1        0.2923
     77 H           7.6352    4.7008   -0.4185 H       1  UNL1        0.0778
     78 H           7.9614    3.0739   -1.0627 H       1  UNL1        0.0778
     79 H           6.7599    4.1206   -1.8557 H       1  UNL1        0.0778
     80 H           6.0344    2.3186    1.8445 H       1  UNL1        0.0778
     81 H           7.5812    2.1366    0.9826 H       1  UNL1        0.0778
     82 H           7.1675    3.6882    1.7506 H       1  UNL1        0.0778
     83 H           8.3200   13.6777   -0.3226 H       1  UNL1        0.0660
     84 H           6.6075   13.9504   -0.7242 H       1  UNL1        0.0660
     85 H           7.2086   14.3219    0.9095 H       1  UNL1        0.0660
     86 N           1.3268   12.6990    3.1646 N.4     1  UNL1        0.2390
     87 H           1.9331   13.0640    3.9086 H       1  UNL1        0.2037
@<TRIPOS>UNITY_ATOM_ATTR
31 1
charge 1
86 1
charge 1
@<TRIPOS>BOND
     1     1    47    1
     2     1    48    1
     3     1    49    1
     4     1    86    1
     5     2     3    1
     6     2    50    1
     7     2    51    1
     8     2    86    1
     9     3     4    1
    10     3    52    1
    11     3    53    1
    12     4     9   ar
    13     4     5   ar
    14     5     6   ar
    15     5    54    1
    16     6     7   ar
    17     6    45    1
    18     7    41    1
    19     7     8   ar
    20     8     9   ar
    21     8    55    1
    22     9    10    1
    23    10    11    1
    24    10    12    1
    25    10    86    1
    26    12    13    1
    27    12    56    1
    28    12    57    1
    29    13    18   ar
    30    13    14   ar
    31    14    15   ar
    32    14    58    1
    33    15    16   ar
    34    15    59    1
    35    16    17   ar
    36    16    19    1
    37    17    18   ar
    38    17    60    1
    39    18    61    1
    40    19    20    1
    41    20    25   ar
    42    20    21   ar
    43    21    32    1
    44    21    22   ar
    45    22    23   ar
    46    22    29    1
    47    23    24   ar
    48    23    62    1
    49    24    25   ar
    50    24    27    1
    51    25    26    1
    52    26    63    1
    53    27    28    1
    54    28    64    1
    55    28    65    1
    56    28    66    1
    57    29    30    1
    58    29    67    1
    59    29    68    1
    60    30    31    1
    61    30    69    1
    62    30    70    1
    63    31    32    1
    64    31    43    1
    65    31    44    1
    66    32    33    1
    67    32    34    1
    68    34    35    1
    69    34    71    1
    70    34    72    1
    71    35    40   ar
    72    35    36   ar
    73    36    37   ar
    74    36    73    1
    75    37    38   ar
    76    37    74    1
    77    38    39   ar
    78    38    42    1
    79    39    40   ar
    80    39    41    1
    81    40    75    1
    82    42    76    1
    83    43    77    1
    84    43    78    1
    85    43    79    1
    86    44    80    1
    87    44    81    1
    88    44    82    1
    89    45    46    1
    90    46    83    1
    91    46    84    1
    92    46    85    1
    93    86    87    1
