@<TRIPOS>MOLECULE
ZINC01531027
 72 75 0 0 0
SMALL
GASTEIGER

@<TRIPOS>ATOM
      1 C           2.8318    0.9661   -1.4813 C.3     1  UNL1       -0.0495
      2 C           1.9998    1.0658   -0.2011 C.3     1  UNL1        0.0102
      3 N           0.6420    0.5816   -0.4623 N.am    1  UNL1       -0.2992
      4 C          -0.3005    0.6684    0.4972 C.2     1  UNL1        0.3085
      5 O          -0.0538    1.2388    1.5416 O.2     1  UNL1       -0.2522
      6 N          -1.5167    0.1226    0.2984 N.am    1  UNL1       -0.2255
      7 C          -2.5031    0.1172    1.3816 C.3     1  UNL1        0.0286
      8 C          -2.1923   -1.0270    2.3486 C.3     1  UNL1        0.0038
      9 C          -3.2042   -1.0140    3.4961 C.3     1  UNL1       -0.0309
     10 C          -1.6156   -1.9004    5.0940 C.3     1  UNL1       -0.0433
     11 C          -3.9864   -2.2812    5.4054 C.3     1  UNL1       -0.0433
     12 C          -1.8255   -0.4182   -0.8968 C.2     1  UNL1        0.2312
     13 O          -0.9690   -0.5412   -1.7459 O.2     1  UNL1       -0.2746
     14 C          -3.2355   -0.8699   -1.1778 C.3     1  UNL1        0.0768
     15 H          -3.9343   -0.0877   -0.8814 H       1  UNL1        0.0447
     16 C          -3.3920   -1.1571   -2.6735 C.3     1  UNL1       -0.0250
     17 C          -4.8088   -1.6721   -2.9432 C.3     1  UNL1        0.0289
     18 H          -5.5167   -0.8938   -2.6583 H       1  UNL1        0.0404
     19 C          -4.9674   -1.9720   -4.4028 C.ar    1  UNL1       -0.0295
     20 C          -4.3595   -1.3680   -5.4575 C.ar    1  UNL1       -0.0574
     21 C          -4.6434   -1.7726   -6.7612 C.ar    1  UNL1       -0.0595
     22 C          -5.5357   -2.7850   -7.0877 C.ar    1  UNL1       -0.0378
     23 C          -6.1744   -3.4261   -6.0276 C.ar    1  UNL1        0.0470
     24 C          -5.8594   -2.9950   -4.7338 C.ar    1  UNL1        0.0067
     25 C          -6.6279   -3.7983   -3.7828 C.ar    1  UNL1       -0.0168
     26 C          -7.3427   -4.6338   -4.5206 C.ar    1  UNL1        0.0061
     27 N          -7.0852   -4.4263   -5.8675 N.ar    1  UNL1       -0.3604
     28 H          -7.4950   -4.9233   -6.5926 H       1  UNL1        0.1653
     29 C          -6.4583   -3.5311   -2.3088 C.3     1  UNL1        0.0181
     30 C          -5.0656   -2.9197   -2.0969 C.3     1  UNL1       -0.0095
     31 H          -4.3186   -3.6664   -2.3664 H       1  UNL1        0.0860
     32 C          -3.5308   -2.1462   -0.3865 C.3     1  UNL1       -0.0199
     33 C          -5.2689   -3.7349    0.1738 C.3     1  UNL1       -0.0130
     34 C          -4.4466   -4.9367   -0.2141 C.2     1  UNL1       -0.0465
     35 C          -3.7376   -5.5650    0.6908 C.2     1  UNL1       -0.0977
     36 H           3.8640    1.2424   -1.2662 H       1  UNL1        0.0245
     37 H           2.8000   -0.0567   -1.8566 H       1  UNL1        0.0245
     38 H           2.4240    1.6418   -2.2331 H       1  UNL1        0.0245
     39 H           1.9585    2.1049    0.1254 H       1  UNL1        0.0460
     40 H           2.4586    0.4578    0.5786 H       1  UNL1        0.0460
     41 H           0.4213    0.1986   -1.3257 H       1  UNL1        0.1502
     42 H          -3.5005   -0.0207    0.9641 H       1  UNL1        0.0472
     43 H          -2.4609    1.0662    1.9162 H       1  UNL1        0.0472
     44 H          -2.2557   -1.9776    1.8190 H       1  UNL1        0.0332
     45 H          -1.1866   -0.9009    2.7496 H       1  UNL1        0.0332
     46 H          -3.1409   -0.0635    4.0257 H       1  UNL1        0.0815
     47 H          -4.2099   -1.1402    3.0951 H       1  UNL1        0.0815
     48 H          -1.6470   -0.9669    5.6558 H       1  UNL1        0.0777
     49 H          -1.4194   -2.7282    5.7755 H       1  UNL1        0.0777
     50 H          -0.8231   -1.8488    4.3474 H       1  UNL1        0.0777
     51 H          -4.9175   -2.5063    4.8852 H       1  UNL1        0.0777
     52 H          -3.7400   -3.1008    6.0803 H       1  UNL1        0.0777
     53 H          -4.1037   -1.3614    5.9784 H       1  UNL1        0.0777
     54 H          -3.2237   -0.2410   -3.2396 H       1  UNL1        0.0282
     55 H          -2.6665   -1.9118   -2.9770 H       1  UNL1        0.0282
     56 H          -3.6526   -0.5700   -5.2849 H       1  UNL1        0.0621
     57 H          -4.1368   -1.2657   -7.5691 H       1  UNL1        0.0618
     58 H          -5.7255   -3.0627   -8.1140 H       1  UNL1        0.0638
     59 H          -8.0277   -5.3715   -4.1295 H       1  UNL1        0.0810
     60 H          -6.5394   -4.4651   -1.7529 H       1  UNL1        0.0369
     61 H          -7.2231   -2.8325   -1.9694 H       1  UNL1        0.0369
     62 H          -2.8251   -2.9249   -0.6760 H       1  UNL1        0.0822
     63 H          -3.4314   -1.9438    0.6800 H       1  UNL1        0.0822
     64 H          -5.0803   -3.4874    1.2184 H       1  UNL1        0.0861
     65 H          -6.3269   -3.9598    0.0391 H       1  UNL1        0.0861
     66 H          -4.4417   -5.2800   -1.2380 H       1  UNL1        0.0619
     67 H          -3.1482   -6.4262    0.4128 H       1  UNL1        0.0534
     68 H          -3.7425   -5.2216    1.7148 H       1  UNL1        0.0534
     69 N          -2.9040   -2.1369    4.4093 N.4     1  UNL1        0.2309
     70 H          -2.8367   -3.0030    3.8620 H       1  UNL1        0.2028
     71 N          -4.9188   -2.5718   -0.6668 N.4     1  UNL1        0.2414
     72 H          -5.5555   -1.7972   -0.4458 H       1  UNL1        0.2040
@<TRIPOS>UNITY_ATOM_ATTR
69 1
charge 1
71 1
charge 1
@<TRIPOS>BOND
     1     1     2    1
     2     1    36    1
     3     1    37    1
     4     1    38    1
     5     2     3    1
     6     2    39    1
     7     2    40    1
     8     3     4   am
     9     3    41    1
    10     4     5    2
    11     4     6   am
    12     6     7    1
    13     6    12   am
    14     7     8    1
    15     7    42    1
    16     7    43    1
    17     8     9    1
    18     8    44    1
    19     8    45    1
    20     9    46    1
    21     9    47    1
    22     9    69    1
    23    10    48    1
    24    10    49    1
    25    10    50    1
    26    10    69    1
    27    11    51    1
    28    11    52    1
    29    11    53    1
    30    11    69    1
    31    12    13    2
    32    12    14    1
    33    14    15    1
    34    14    32    1
    35    14    16    1
    36    16    17    1
    37    16    54    1
    38    16    55    1
    39    17    18    1
    40    17    30    1
    41    17    19    1
    42    19    24   ar
    43    19    20   ar
    44    20    21   ar
    45    20    56    1
    46    21    22   ar
    47    21    57    1
    48    22    23   ar
    49    22    58    1
    50    23    27   ar
    51    23    24   ar
    52    24    25   ar
    53    25    26   ar
    54    25    29    1
    55    26    27   ar
    56    26    59    1
    57    27    28    1
    58    29    30    1
    59    29    60    1
    60    29    61    1
    61    30    31    1
    62    30    71    1
    63    32    62    1
    64    32    63    1
    65    32    71    1
    66    33    34    1
    67    33    64    1
    68    33    65    1
    69    33    71    1
    70    34    35    2
    71    34    66    1
    72    35    67    1
    73    35    68    1
    74    69    70    1
    75    71    72    1
