@<TRIPOS>MOLECULE
ZINC00896711
 37 38 0 0 0
SMALL
GASTEIGER

@<TRIPOS>ATOM
      1 C           1.4014    7.4188    0.4198 C.3     1  UNL1        0.0817
      2 O           0.0264    6.9611    0.3288 O.3     1  UNL1       -0.4674
      3 C          -0.1714    5.6351    0.2642 C.2     1  UNL1        0.3198
      4 O           0.7731    4.8817    0.2830 O.2     1  UNL1       -0.2499
      5 C          -1.5715    5.0859    0.1682 C.3     1  UNL1        0.1238
      6 H          -2.0506    5.4679   -0.7333 H       1  UNL1        0.0519
      7 C          -2.3628    5.5136    1.3773 C.ar    1  UNL1       -0.0284
      8 C          -1.8948    5.2276    2.6462 C.ar    1  UNL1       -0.0576
      9 C          -2.6185    5.6237    3.7554 C.ar    1  UNL1       -0.0615
     10 C          -3.8148    6.2978    3.5955 C.ar    1  UNL1       -0.0617
     11 C          -4.2853    6.5792    2.3266 C.ar    1  UNL1       -0.0615
     12 C          -3.5595    6.1869    1.2175 C.ar    1  UNL1       -0.0576
     13 C          -1.5171    3.5581    0.1086 C.3     1  UNL1       -0.0053
     14 H          -0.9496    3.1815    0.9597 H       1  UNL1        0.0862
     15 C          -2.9393    2.9950    0.1547 C.3     1  UNL1       -0.0084
     16 C          -2.8810    1.4670    0.0746 C.3     1  UNL1       -0.0431
     17 C          -2.1535    1.0585   -1.2093 C.3     1  UNL1       -0.0124
     18 C          -0.7540    1.6778   -1.2169 C.3     1  UNL1       -0.0334
     19 H           1.8618    7.0099    1.3192 H       1  UNL1        0.0661
     20 H           1.9550    7.0825   -0.4569 H       1  UNL1        0.0661
     21 H           1.4196    8.5077    0.4653 H       1  UNL1        0.0661
     22 H          -0.9621    4.6976    2.7711 H       1  UNL1        0.0621
     23 H          -2.2507    5.4042    4.7468 H       1  UNL1        0.0618
     24 H          -4.3815    6.6050    4.4621 H       1  UNL1        0.0618
     25 H          -5.2199    7.1059    2.2017 H       1  UNL1        0.0618
     26 H          -3.9271    6.4067    0.2261 H       1  UNL1        0.0621
     27 H          -3.5115    3.3820   -0.6884 H       1  UNL1        0.0320
     28 H          -3.4190    3.2924    1.0872 H       1  UNL1        0.0320
     29 H          -3.8936    1.0639    0.0635 H       1  UNL1        0.0269
     30 H          -2.3422    1.0772    0.9383 H       1  UNL1        0.0269
     31 H          -2.0711   -0.0276   -1.2511 H       1  UNL1        0.0317
     32 H          -2.7136    1.4145   -2.0740 H       1  UNL1        0.0317
     33 H          -0.1895    1.3101   -0.3600 H       1  UNL1        0.0814
     34 H          -0.2392    1.4005   -2.1368 H       1  UNL1        0.0814
     35 N          -0.8599    3.1478   -1.1471 N.4     1  UNL1        0.2300
     36 H           0.0810    3.5568   -1.1856 H       1  UNL1        0.2016
     37 H          -1.4127    3.4852   -1.9439 H       1  UNL1        0.2016
@<TRIPOS>UNITY_ATOM_ATTR
35 1
charge 1
@<TRIPOS>BOND
     1     1     2    1
     2     1    19    1
     3     1    20    1
     4     1    21    1
     5     2     3    1
     6     3     4    2
     7     3     5    1
     8     5     6    1
     9     5     7    1
    10     5    13    1
    11     7    12   ar
    12     7     8   ar
    13     8     9   ar
    14     8    22    1
    15     9    10   ar
    16     9    23    1
    17    10    11   ar
    18    10    24    1
    19    11    12   ar
    20    11    25    1
    21    12    26    1
    22    13    14    1
    23    13    15    1
    24    13    35    1
    25    15    16    1
    26    15    27    1
    27    15    28    1
    28    16    17    1
    29    16    29    1
    30    16    30    1
    31    17    18    1
    32    17    31    1
    33    17    32    1
    34    18    33    1
    35    18    34    1
    36    18    35    1
    37    35    36    1
    38    35    37    1
