@<TRIPOS>MOLECULE
ZINC11616211
 60 63 0 0 0
SMALL
GASTEIGER

@<TRIPOS>ATOM
      1 C           4.1806   -0.4673    0.7341 C.3     1  UNL1        0.0333
      2 C           3.1203    0.3432    0.0342 C.2     1  UNL1        0.3045
      3 O           2.9488    0.2155   -1.1549 O.2     1  UNL1       -0.2511
      4 O           2.3663    1.2072    0.7320 O.3     1  UNL1       -0.4574
      5 C           1.3645    1.9542   -0.0073 C.3     1  UNL1        0.1215
      6 H           1.7055    2.1079   -1.0311 H       1  UNL1        0.0779
      7 C           1.1325    3.3110    0.6654 C.3     1  UNL1       -0.0114
      8 C           0.0066    4.0304   -0.0766 C.3     1  UNL1       -0.0426
      9 C          -1.2939    3.2526    0.0319 C.3     1  UNL1       -0.0166
     10 H          -1.7626    3.5029    0.9836 H       1  UNL1        0.0348
     11 C          -2.2458    3.6703   -1.0945 C.3     1  UNL1       -0.0314
     12 H          -1.7705    3.4853   -2.0578 H       1  UNL1        0.0309
     13 C          -2.5428    5.1649   -0.9574 C.3     1  UNL1       -0.0487
     14 C          -3.2931    5.4605    0.3526 C.3     1  UNL1       -0.0425
     15 C          -4.5681    4.6422    0.3407 C.3     1  UNL1        0.0223
     16 C          -4.1625    3.1425    0.3527 C.3     1  UNL1       -0.0278
     17 H          -3.4532    2.9303    1.1527 H       1  UNL1        0.0310
     18 C          -3.5398    2.8481   -0.9973 C.3     1  UNL1       -0.0339
     19 H          -4.2278    3.1633   -1.7817 H       1  UNL1        0.0307
     20 C          -3.2396    1.3621   -1.1555 C.3     1  UNL1       -0.0460
     21 C          -2.3330    0.8873   -0.0169 C.3     1  UNL1       -0.0311
     22 C          -1.0937    1.7667   -0.0062 C.2     1  UNL1       -0.0667
     23 C           0.0719    1.1889   -0.0172 C.2     1  UNL1       -0.0445
     24 C          -5.5068    2.4631    0.6355 C.3     1  UNL1       -0.0447
     25 C          -6.1373    3.3771    1.7217 C.3     1  UNL1       -0.0005
     26 C          -5.4784    4.7695    1.5568 C.3     1  UNL1        0.1784
     27 C          -4.6884    5.1050    2.7526 C.1     1  UNL1       -0.0576
     28 C          -4.0583    5.3726    3.7064 C.1     1  UNL1       -0.1152
     29 O          -6.4929    5.7820    1.3245 O.3     1  UNL1       -0.4447
     30 C          -7.4033    5.9661    2.2935 C.2     1  UNL1        0.3054
     31 O          -7.3541    5.3031    3.3025 O.2     1  UNL1       -0.2511
     32 C          -8.4868    6.9996    2.1231 C.3     1  UNL1        0.0333
     33 C          -5.3605    4.9513   -0.9310 C.3     1  UNL1       -0.0547
     34 H           4.1871   -0.2181    1.7952 H       1  UNL1        0.0342
     35 H           3.9663   -1.5290    0.6115 H       1  UNL1        0.0342
     36 H           5.1553   -0.2411    0.3017 H       1  UNL1        0.0342
     37 H           0.8483    3.1607    1.7069 H       1  UNL1        0.0304
     38 H           2.0442    3.9063    0.6153 H       1  UNL1        0.0304
     39 H          -0.1313    5.0218    0.3549 H       1  UNL1        0.0272
     40 H           0.2772    4.1319   -1.1276 H       1  UNL1        0.0272
     41 H          -1.6039    5.7186   -0.9649 H       1  UNL1        0.0268
     42 H          -3.1540    5.4872   -1.8005 H       1  UNL1        0.0268
     43 H          -3.5348    6.5218    0.4095 H       1  UNL1        0.0272
     44 H          -2.6770    5.1739    1.2049 H       1  UNL1        0.0272
     45 H          -4.1732    0.8000   -1.1329 H       1  UNL1        0.0271
     46 H          -2.7405    1.1934   -2.1097 H       1  UNL1        0.0271
     47 H          -2.8590    0.9758    0.9337 H       1  UNL1        0.0310
     48 H          -2.0462   -0.1511   -0.1834 H       1  UNL1        0.0310
     49 H           0.1120    0.1099   -0.0388 H       1  UNL1        0.0608
     50 H          -6.1264    2.4461   -0.2612 H       1  UNL1        0.0270
     51 H          -5.3558    1.4546    1.0203 H       1  UNL1        0.0270
     52 H          -7.2139    3.4520    1.5688 H       1  UNL1        0.0314
     53 H          -5.9267    2.9786    2.7142 H       1  UNL1        0.0314
     54 H          -3.4947    5.6119    4.5594 H       1  UNL1        0.1229
     55 H          -8.3698    7.4929    1.1582 H       1  UNL1        0.0342
     56 H          -9.4619    6.5144    2.1672 H       1  UNL1        0.0342
     57 H          -8.4124    7.7389    2.9205 H       1  UNL1        0.0342
     58 H          -6.2265    4.2919   -0.9889 H       1  UNL1        0.0237
     59 H          -5.6947    5.9886   -0.9077 H       1  UNL1        0.0237
     60 H          -4.7250    4.7938   -1.8024 H       1  UNL1        0.0237
@<TRIPOS>BOND
     1     1     2    1
     2     1    34    1
     3     1    35    1
     4     1    36    1
     5     2     3    2
     6     2     4    1
     7     4     5    1
     8     5     6    1
     9     5    23    1
    10     5     7    1
    11     7     8    1
    12     7    37    1
    13     7    38    1
    14     8     9    1
    15     8    39    1
    16     8    40    1
    17     9    10    1
    18     9    22    1
    19     9    11    1
    20    11    12    1
    21    11    18    1
    22    11    13    1
    23    13    14    1
    24    13    41    1
    25    13    42    1
    26    14    15    1
    27    14    43    1
    28    14    44    1
    29    15    26    1
    30    15    16    1
    31    15    33    1
    32    16    17    1
    33    16    18    1
    34    16    24    1
    35    18    19    1
    36    18    20    1
    37    20    21    1
    38    20    45    1
    39    20    46    1
    40    21    22    1
    41    21    47    1
    42    21    48    1
    43    22    23    2
    44    23    49    1
    45    24    25    1
    46    24    50    1
    47    24    51    1
    48    25    26    1
    49    25    52    1
    50    25    53    1
    51    26    27    1
    52    26    29    1
    53    27    28    3
    54    28    54    1
    55    29    30    1
    56    30    31    2
    57    30    32    1
    58    32    55    1
    59    32    56    1
    60    32    57    1
    61    33    58    1
    62    33    59    1
    63    33    60    1
