@<TRIPOS>MOLECULE
ZINC03830633
 68 72 0 0 0
SMALL
GASTEIGER

@<TRIPOS>ATOM
      1 C          -1.9423    0.3578   -2.9549 C.3     1  UNL1       -0.0359
      2 C          -2.4661   -0.9730   -2.4114 C.3     1  UNL1        0.0900
      3 H          -3.1195   -1.4358   -3.1510 H       1  UNL1        0.0622
      4 C          -3.2515   -0.7239   -1.1211 C.3     1  UNL1        0.1234
      5 H          -2.6105   -0.2232   -0.3954 H       1  UNL1        0.0676
      6 C          -3.7210   -2.0653   -0.5497 C.3     1  UNL1        0.0093
      7 H          -4.4023   -2.5430   -1.2537 H       1  UNL1        0.0878
      8 C          -2.5028   -2.9666   -0.3255 C.3     1  UNL1        0.0439
      9 C          -1.7464   -3.1291   -1.6465 C.3     1  UNL1        0.1655
     10 H          -2.3903   -3.6203   -2.3761 H       1  UNL1        0.0912
     11 O          -1.3654   -1.8422   -2.1372 O.3     1  UNL1       -0.3454
     12 O          -0.5774   -3.9225   -1.4321 O.3     1  UNL1       -0.3431
     13 C           0.0753   -4.3329   -2.6352 C.3     1  UNL1        0.0934
     14 H          -0.0248   -3.5472   -3.3840 H       1  UNL1        0.0649
     15 C          -0.5828   -5.6093   -3.1544 C.3     1  UNL1        0.0140
     16 C           0.2626   -6.1502   -4.3138 C.3     1  UNL1        0.1300
     17 C           1.5791   -6.6734   -3.7439 C.3     1  UNL1        0.0122
     18 C           2.2272   -5.6356   -2.8639 C.ar    1  UNL1        0.0070
     19 C           1.5374   -4.5652   -2.3526 C.ar    1  UNL1        0.0302
     20 C           2.1912   -3.6345   -1.5342 C.ar    1  UNL1        0.1345
     21 C           3.5438   -3.7819   -1.2342 C.ar    1  UNL1        0.0784
     22 C           4.2531   -4.8794   -1.7624 C.ar    1  UNL1        0.0782
     23 C           3.5881   -5.7975   -2.5730 C.ar    1  UNL1        0.1322
     24 O           4.2639   -6.8561   -3.0846 O.3     1  UNL1       -0.5057
     25 C           5.6839   -5.0496   -1.4566 C.2     1  UNL1        0.1982
     26 O           6.2960   -5.9961   -1.9124 O.2     1  UNL1       -0.2865
     27 C           6.3735   -4.0679   -0.5937 C.ar    1  UNL1        0.0367
     28 C           7.7243   -4.2206   -0.2990 C.ar    1  UNL1       -0.0500
     29 C           8.3666   -3.2972    0.5094 C.ar    1  UNL1       -0.0576
     30 C           7.6771   -2.2205    1.0291 C.ar    1  UNL1       -0.0192
     31 C           6.3253   -2.0485    0.7474 C.ar    1  UNL1        0.1316
     32 C           5.6638   -2.9728   -0.0671 C.ar    1  UNL1        0.0748
     33 C           4.2320   -2.8032   -0.3741 C.2     1  UNL1        0.2016
     34 O           3.6194   -1.8567    0.0822 O.2     1  UNL1       -0.2864
     35 O           5.6525   -0.9888    1.2601 O.3     1  UNL1       -0.4944
     36 C           6.3939   -0.0863    2.0835 C.3     1  UNL1        0.0788
     37 O           1.5018   -2.5808   -1.0305 O.3     1  UNL1       -0.5057
     38 C          -0.4748   -7.2708   -5.0004 C.2     1  UNL1        0.1620
     39 O          -1.3027   -7.9087   -4.3954 O.2     1  UNL1       -0.2946
     40 C          -0.1789   -7.5955   -6.4420 C.3     1  UNL1       -0.0032
     41 O           0.5252   -5.1016   -5.2485 O.3     1  UNL1       -0.3806
     42 O          -4.3858    0.0981   -1.4036 O.3     1  UNL1       -0.3836
     43 H          -1.3717    0.8679   -2.1788 H       1  UNL1        0.0255
     44 H          -1.2995    0.1712   -3.8151 H       1  UNL1        0.0255
     45 H          -2.7826    0.9825   -3.2579 H       1  UNL1        0.0255
     46 H          -2.8326   -3.9435    0.0280 H       1  UNL1        0.0370
     47 H          -1.8460   -2.5133    0.4170 H       1  UNL1        0.0370
     48 H          -0.6281   -6.3501   -2.3560 H       1  UNL1        0.0326
     49 H          -1.5898   -5.3862   -3.5068 H       1  UNL1        0.0326
     50 H           1.3849   -7.5713   -3.1572 H       1  UNL1        0.0347
     51 H           2.2531   -6.9194   -4.5645 H       1  UNL1        0.0347
     52 H           4.6692   -6.6850   -3.9458 H       1  UNL1        0.2922
     53 H           8.2728   -5.0596   -0.7011 H       1  UNL1        0.0625
     54 H           9.4157   -3.4206    0.7346 H       1  UNL1        0.0619
     55 H           8.1896   -1.5073    1.6576 H       1  UNL1        0.0654
     56 H           7.2156    0.3394    1.5075 H       1  UNL1        0.0660
     57 H           5.7384    0.7139    2.4273 H       1  UNL1        0.0660
     58 H           6.7932   -0.6237    2.9436 H       1  UNL1        0.0660
     59 H           1.5710   -1.7756   -1.5613 H       1  UNL1        0.2922
     60 H           0.5261   -6.9750   -6.7855 H       1  UNL1        0.0307
     61 H           0.1740   -8.6240   -6.5177 H       1  UNL1        0.0307
     62 H          -1.0863   -7.4782   -7.0344 H       1  UNL1        0.0307
     63 H           1.0566   -5.3761   -6.0083 H       1  UNL1        0.2108
     64 H          -4.7290   -2.7122    1.1248 H       1  UNL1        0.1998
     65 H          -3.8169   -1.3444    1.3763 H       1  UNL1        0.1998
     66 H          -4.1621    0.9643   -1.7708 H       1  UNL1        0.2102
     67 N          -4.4291   -1.8267    0.7203 N.4     1  UNL1        0.2228
     68 H          -5.2549   -1.2432    0.5419 H       1  UNL1        0.1998
@<TRIPOS>UNITY_ATOM_ATTR
67 1
charge 1
@<TRIPOS>BOND
     1     1     2    1
     2     1    43    1
     3     1    44    1
     4     1    45    1
     5     2     3    1
     6     2    11    1
     7     2     4    1
     8     4     5    1
     9     4     6    1
    10     4    42    1
    11     6     7    1
    12     6     8    1
    13     6    67    1
    14     8     9    1
    15     8    46    1
    16     8    47    1
    17     9    10    1
    18     9    11    1
    19     9    12    1
    20    12    13    1
    21    13    14    1
    22    13    19    1
    23    13    15    1
    24    15    16    1
    25    15    48    1
    26    15    49    1
    27    16    17    1
    28    16    38    1
    29    16    41    1
    30    17    18    1
    31    17    50    1
    32    17    51    1
    33    18    23   ar
    34    18    19   ar
    35    19    20   ar
    36    20    21   ar
    37    20    37    1
    38    21    33    1
    39    21    22   ar
    40    22    23   ar
    41    22    25    1
    42    23    24    1
    43    24    52    1
    44    25    26    2
    45    25    27    1
    46    27    32   ar
    47    27    28   ar
    48    28    29   ar
    49    28    53    1
    50    29    30   ar
    51    29    54    1
    52    30    31   ar
    53    30    55    1
    54    31    32   ar
    55    31    35    1
    56    32    33    1
    57    33    34    2
    58    35    36    1
    59    36    56    1
    60    36    57    1
    61    36    58    1
    62    37    59    1
    63    38    39    2
    64    38    40    1
    65    40    60    1
    66    40    61    1
    67    40    62    1
    68    41    63    1
    69    42    66    1
    70    64    67    1
    71    65    67    1
    72    67    68    1
