@<TRIPOS>MOLECULE
ZINC00001916
 23 23 0 0 0
SMALL
GASTEIGER

@<TRIPOS>ATOM
      1 C          -0.0126    1.0758    0.0080 C.ar    1  UNL1       -0.0617
      2 C          -1.2190    1.7506    0.0173 C.ar    1  UNL1       -0.0615
      3 C          -1.2377    3.1328    0.0299 C.ar    1  UNL1       -0.0581
      4 C          -0.0501    3.8402    0.0228 C.ar    1  UNL1       -0.0386
      5 C           1.1563    3.1654    0.0076 C.ar    1  UNL1       -0.0581
      6 C           1.1750    1.7832    0.0004 C.ar    1  UNL1       -0.0615
      7 C          -0.0705    5.3471    0.0311 C.3     1  UNL1        0.0495
      8 C          -0.0909    5.8570   -1.3868 C.2     1  UNL1        0.2247
      9 O          -0.0890    5.0743   -2.3126 O.2     1  UNL1       -0.2750
     10 N          -0.1112    7.1833   -1.6257 N.am    1  UNL1       -0.2401
     11 C          -0.1295    7.6393   -2.8939 C.2     1  UNL1        0.3033
     12 O          -0.1276    6.8546   -3.8220 O.2     1  UNL1       -0.2527
     13 N          -0.1498    8.9656   -3.1328 N.am    1  UNL1       -0.3130
     14 H           0.0021   -0.0041    0.0020 H       1  UNL1        0.0618
     15 H          -2.1469    1.1980    0.0187 H       1  UNL1        0.0618
     16 H          -2.1802    3.6600    0.0414 H       1  UNL1        0.0620
     17 H           2.0842    3.7181    0.0017 H       1  UNL1        0.0620
     18 H           2.1175    1.2560   -0.0115 H       1  UNL1        0.0618
     19 H          -0.9604    5.6955    0.5554 H       1  UNL1        0.0407
     20 H           0.8193    5.7197    0.5385 H       1  UNL1        0.0407
     21 H          -0.1127    7.8096   -0.8850 H       1  UNL1        0.1591
     22 H          -0.1513    9.5919   -2.3921 H       1  UNL1        0.1465
     23 H          -0.1629    9.2938   -4.0455 H       1  UNL1        0.1465
@<TRIPOS>BOND
     1     1     6   ar
     2     1     2   ar
     3     1    14    1
     4     2     3   ar
     5     2    15    1
     6     3     4   ar
     7     3    16    1
     8     4     5   ar
     9     4     7    1
    10     5     6   ar
    11     5    17    1
    12     6    18    1
    13     7     8    1
    14     7    19    1
    15     7    20    1
    16     8     9    2
    17     8    10   am
    18    10    11   am
    19    10    21    1
    20    11    12    2
    21    11    13   am
    22    13    22    1
    23    13    23    1
