@<TRIPOS>MOLECULE
ZINC03830658
 59 62 0 0 0
SMALL
GASTEIGER

@<TRIPOS>ATOM
      1 C          -6.6483    5.5438    2.9239 C.3     1  UNL1        0.0332
      2 C          -5.6122    4.9207    3.8235 C.2     1  UNL1        0.3043
      3 O          -5.8534    4.7502    4.9951 O.2     1  UNL1       -0.2512
      4 O          -4.4215    4.5550    3.3232 O.3     1  UNL1       -0.4571
      5 C          -3.4723    3.9612    4.2477 C.3     1  UNL1        0.1504
      6 C          -2.2027    3.6175    3.5123 C.2     1  UNL1        0.1740
      7 O          -2.1076    3.8491    2.3309 O.2     1  UNL1       -0.2935
      8 C          -1.0516    2.9848    4.2511 C.3     1  UNL1        0.0266
      9 H          -0.9996    3.3642    5.1749 H       1  UNL1        0.0384
     10 C           0.2675    3.2292    3.4902 C.3     1  UNL1       -0.0426
     11 C           0.8180    1.8370    3.1103 C.3     1  UNL1       -0.0488
     12 C          -0.4476    0.9287    3.0909 C.3     1  UNL1       -0.0318
     13 H          -0.2102   -0.1306    3.1880 H       1  UNL1        0.0309
     14 C          -1.2297    1.4617    4.3033 C.3     1  UNL1       -0.0194
     15 C          -2.6879    1.0631    4.2838 C.3     1  UNL1       -0.0464
     16 C          -3.3557    1.4362    2.9796 C.3     1  UNL1       -0.0486
     17 C          -2.6224    0.7381    1.8267 C.3     1  UNL1       -0.0288
     18 H          -2.6445   -0.3412    1.9777 H       1  UNL1        0.0312
     19 C          -1.1811    1.2359    1.7816 C.3     1  UNL1       -0.0338
     20 H          -1.1760    2.3131    1.6156 H       1  UNL1        0.0307
     21 C          -0.4339    0.5417    0.6367 C.3     1  UNL1       -0.0459
     22 C          -1.0608    0.9467   -0.6984 C.3     1  UNL1       -0.0305
     23 C          -2.5429    0.6218   -0.6553 C.2     1  UNL1       -0.0601
     24 C          -3.0601   -0.0609   -1.6762 C.2     1  UNL1       -0.0194
     25 C          -4.4907   -0.3859   -1.6905 C.2     1  UNL1        0.1561
     26 O          -4.9326   -1.2962   -2.3599 O.2     1  UNL1       -0.2927
     27 C          -5.3876    0.4768   -0.8243 C.3     1  UNL1        0.0107
     28 C          -4.7577    0.5395    0.5664 C.3     1  UNL1       -0.0367
     29 C          -3.3439    1.0918    0.5189 C.3     1  UNL1       -0.0072
     30 C          -3.4347    2.6175    0.4492 C.3     1  UNL1       -0.0556
     31 C          -0.5842    0.9294    5.5843 C.3     1  UNL1       -0.0587
     32 H          -6.9012    4.8476    2.1243 H       1  UNL1        0.0342
     33 H          -7.5428    5.7719    3.5035 H       1  UNL1        0.0342
     34 H          -6.2503    6.4626    2.4933 H       1  UNL1        0.0342
     35 H          -3.8653    3.1299    4.6408 H       1  UNL1        0.0778
     36 H          -3.2497    4.6702    5.0452 H       1  UNL1        0.0778
     37 H           0.0773    3.8142    2.5904 H       1  UNL1        0.0272
     38 H           0.9783    3.7499    4.1318 H       1  UNL1        0.0272
     39 H           1.5278    1.4883    3.8605 H       1  UNL1        0.0268
     40 H           1.2838    1.8653    2.1252 H       1  UNL1        0.0268
     41 H          -2.7655   -0.0178    4.4013 H       1  UNL1        0.0271
     42 H          -3.2039    1.5512    5.1105 H       1  UNL1        0.0271
     43 H          -3.2996    2.5167    2.8478 H       1  UNL1        0.0268
     44 H          -4.3990    1.1207    2.9938 H       1  UNL1        0.0268
     45 H          -0.5049   -0.5391    0.7588 H       1  UNL1        0.0271
     46 H           0.6140    0.8413    0.6521 H       1  UNL1        0.0271
     47 H          -0.9250    2.0165   -0.8568 H       1  UNL1        0.0310
     48 H          -0.5878    0.3912   -1.5082 H       1  UNL1        0.0310
     49 H          -2.4264   -0.3750   -2.4924 H       1  UNL1        0.0652
     50 H          -5.4562    1.3914   -1.2228 H       1  UNL1        0.0345
     51 H          -6.3808    0.0322   -0.7614 H       1  UNL1        0.0345
     52 H          -5.3677    1.1790    1.2044 H       1  UNL1        0.0278
     53 H          -4.7319   -0.4643    0.9905 H       1  UNL1        0.0278
     54 H          -3.9584    2.9091   -0.4612 H       1  UNL1        0.0238
     55 H          -3.9800    2.9890    1.3168 H       1  UNL1        0.0238
     56 H          -2.4305    3.0413    0.4424 H       1  UNL1        0.0238
     57 H           0.4509    1.2669    5.6370 H       1  UNL1        0.0235
     58 H          -1.1324    1.3024    6.4495 H       1  UNL1        0.0235
     59 H          -0.6113   -0.1603    5.5792 H       1  UNL1        0.0235
@<TRIPOS>BOND
     1     1     2    1
     2     1    32    1
     3     1    33    1
     4     1    34    1
     5     2     3    2
     6     2     4    1
     7     4     5    1
     8     5     6    1
     9     5    35    1
    10     5    36    1
    11     6     7    2
    12     6     8    1
    13     8     9    1
    14     8    14    1
    15     8    10    1
    16    10    11    1
    17    10    37    1
    18    10    38    1
    19    11    12    1
    20    11    39    1
    21    11    40    1
    22    12    13    1
    23    12    19    1
    24    12    14    1
    25    14    15    1
    26    14    31    1
    27    15    16    1
    28    15    41    1
    29    15    42    1
    30    16    17    1
    31    16    43    1
    32    16    44    1
    33    17    18    1
    34    17    29    1
    35    17    19    1
    36    19    20    1
    37    19    21    1
    38    21    22    1
    39    21    45    1
    40    21    46    1
    41    22    23    1
    42    22    47    1
    43    22    48    1
    44    23    29    1
    45    23    24    2
    46    24    25    1
    47    24    49    1
    48    25    26    2
    49    25    27    1
    50    27    28    1
    51    27    50    1
    52    27    51    1
    53    28    29    1
    54    28    52    1
    55    28    53    1
    56    29    30    1
    57    30    54    1
    58    30    55    1
    59    30    56    1
    60    31    57    1
    61    31    58    1
    62    31    59    1
