@<TRIPOS>MOLECULE
ZINC03830443
 51 54 0 0 0
SMALL
GASTEIGER

@<TRIPOS>ATOM
      1 C           1.9090   -2.4851   -1.8679 C.3     1  UNL1        0.0346
      2 N           1.8959   -1.1129   -2.3807 N.ar    1  UNL1       -0.2233
      3 C           1.3634   -0.0185   -1.7873 C.ar    1  UNL1        0.2094
      4 N           1.5707    0.9988   -2.5951 N.ar    1  UNL1       -0.1015
      5 N           2.2030    0.6172   -3.6457 N.ar    1  UNL1       -0.0222
      6 N           2.4343   -0.6499   -3.5940 N.ar    1  UNL1       -0.0435
      7 S           0.5408    0.0320   -0.2299 S.3     1  UNL1       -0.0801
      8 C           0.1372    1.7943   -0.1447 C.3     1  UNL1        0.0251
      9 C          -0.5925    2.0809    1.1424 C.2     1  UNL1       -0.0264
     10 C           0.1687    2.2753    2.2095 C.2     1  UNL1        0.0608
     11 N          -0.4078    2.5984    3.4439 N.am    1  UNL1       -0.2484
     12 C          -1.8307    2.4222    3.8493 C.3     1  UNL1        0.1320
     13 H          -2.0935    1.4159    4.1754 H       1  UNL1        0.0672
     14 C          -1.6081    3.4265    4.9660 C.3     1  UNL1        0.2425
     15 C          -0.1596    3.2004    4.6005 C.2     1  UNL1        0.2745
     16 O           0.8758    3.4750    5.1694 O.2     1  UNL1       -0.2701
     17 N          -1.9792    2.9432    6.2982 N.am    1  UNL1       -0.2764
     18 C          -1.3740    1.8546    6.8130 C.2     1  UNL1        0.2392
     19 O          -0.5220    1.2751    6.1733 O.2     1  UNL1       -0.2736
     20 C          -1.7558    1.3575    8.1834 C.3     1  UNL1        0.1367
     21 S          -1.6665    2.6356    9.4778 S.3     1  UNL1       -0.0936
     22 C          -0.9805    1.3716   10.5166 C.2     1  UNL1        0.0576
     23 C          -0.9246    1.1367   11.8974 C.2     1  UNL1        0.0785
     24 C          -1.6435    2.0156   12.8180 C.2     1  UNL1        0.2448
     25 O          -1.6786    1.7544   14.0067 O.2     1  UNL1       -0.2703
     26 N          -2.2674    3.1152   12.3510 N.am    1  UNL1       -0.3253
     27 C          -0.1718    0.0480   12.4005 C.2     1  UNL1        0.0782
     28 O           0.5042   -0.6252   11.6449 O.co2   1  UNL1       -0.5444
     29 S          -0.3957    0.5304    9.0682 S.3     1  UNL1       -0.0936
     30 O          -2.0905    4.7415    4.6829 O.3     1  UNL1       -0.3492
     31 C          -1.8764    5.6792    5.7397 C.3     1  UNL1        0.0396
     32 S          -2.8278    3.0227    2.4434 S.3     1  UNL1       -0.1285
     33 C          -2.0838    2.1161    1.0547 C.3     1  UNL1        0.0196
     34 C           1.6331    2.1499    2.0963 C.2     1  UNL1        0.0860
     35 O           2.3434    2.4576    3.0329 O.co2   1  UNL1       -0.5433
     36 H           1.0154   -3.0086   -2.2079 H       1  UNL1        0.0474
     37 H           2.7951   -3.0022   -2.2361 H       1  UNL1        0.0474
     38 H           1.9262   -2.4657   -0.7783 H       1  UNL1        0.0474
     39 H           1.0561    2.3796   -0.1795 H       1  UNL1        0.0427
     40 H          -0.4970    2.0631   -0.9895 H       1  UNL1        0.0427
     41 H          -2.6606    3.4068    6.8098 H       1  UNL1        0.1520
     42 H          -2.6881    0.7928    8.1859 H       1  UNL1        0.0629
     43 H          -2.3010    3.2853   11.3966 H       1  UNL1        0.1453
     44 H          -2.6828    3.7366   12.9693 H       1  UNL1        0.1453
     45 H          -0.8081    5.7645    5.9388 H       1  UNL1        0.0524
     46 H          -2.2703    6.6525    5.4471 H       1  UNL1        0.0524
     47 H          -2.3873    5.3358    6.6392 H       1  UNL1        0.0524
     48 H          -2.3729    2.5968    0.1201 H       1  UNL1        0.0423
     49 H          -2.4635    1.0944    1.0584 H       1  UNL1        0.0423
     50 O          -0.2039   -0.2432   13.7178 O.co2   1  UNL1       -0.5444
     51 O           2.1841    1.6940    0.9540 O.co2   1  UNL1       -0.5433
@<TRIPOS>UNITY_ATOM_ATTR
50 1
charge -1
51 1
charge -1
@<TRIPOS>BOND
     1     1     2    1
     2     1    36    1
     3     1    37    1
     4     1    38    1
     5     2     6   ar
     6     2     3   ar
     7     3     4   ar
     8     3     7    1
     9     4     5   ar
    10     5     6   ar
    11     7     8    1
    12     8     9    1
    13     8    39    1
    14     8    40    1
    15     9    33    1
    16     9    10    2
    17    10    11    1
    18    10    34    1
    19    11    15   am
    20    11    12    1
    21    12    13    1
    22    12    14    1
    23    12    32    1
    24    14    15    1
    25    14    17    1
    26    14    30    1
    27    15    16    2
    28    17    18   am
    29    17    41    1
    30    18    19    2
    31    18    20    1
    32    20    29    1
    33    20    21    1
    34    20    42    1
    35    21    22    1
    36    22    23    2
    37    22    29    1
    38    23    24    1
    39    23    27    1
    40    24    25    2
    41    24    26   am
    42    26    43    1
    43    26    44    1
    44    27    28   ar
    45    27    50   ar
    46    30    31    1
    47    31    45    1
    48    31    46    1
    49    31    47    1
    50    32    33    1
    51    33    48    1
    52    33    49    1
    53    34    35   ar
    54    34    51   ar
