@<TRIPOS>MOLECULE
ZINC08101088
 119 121 0 0 0
SMALL
GASTEIGER

@<TRIPOS>ATOM
      1 C           2.0166    5.0766    3.1684 C.3     1  UNL1       -0.0618
      2 C           1.9943    4.1353    1.9625 C.3     1  UNL1       -0.0157
      3 C           1.0381    4.6823    0.9085 C.3     1  UNL1        0.1335
      4 H           1.3987    5.6890    0.6224 H       1  UNL1        0.0764
      5 C           1.0864    3.8227   -0.3714 C.3     1  UNL1        0.1262
      6 C           0.4472    2.4719   -0.1172 C.3     1  UNL1        0.0963
      7 H          -0.3735    2.6055    0.5981 H       1  UNL1        0.0630
      8 C          -0.0202    1.6794   -1.3138 C.3     1  UNL1        0.0437
      9 H           0.4709    0.8090   -1.3496 H       1  UNL1        0.0401
     10 C          -1.4514    1.2371   -1.2393 C.2     1  UNL1        0.1416
     11 O          -1.7098    0.0857   -1.5638 O.2     1  UNL1       -0.2967
     12 C          -2.6019    2.1036   -0.8006 C.3     1  UNL1        0.0177
     13 H          -3.4602    1.6053   -0.9233 H       1  UNL1        0.0376
     14 C          -2.4485    2.4468    0.6718 C.3     1  UNL1       -0.0125
     15 C          -3.7418    2.4483    1.4676 C.3     1  UNL1        0.0903
     16 C          -3.5503    3.2314    2.7609 C.3     1  UNL1        0.0951
     17 H          -2.5874    2.9203    3.1991 H       1  UNL1        0.0629
     18 C          -3.5948    4.7402    2.6825 C.3     1  UNL1        0.0124
     19 H          -4.6521    5.0320    2.9193 H       1  UNL1        0.0349
     20 C          -2.7538    5.3588    3.7987 C.3     1  UNL1        0.0793
     21 H          -2.8867    4.7400    4.7040 H       1  UNL1        0.0608
     22 C          -1.2731    5.4925    3.5237 C.3     1  UNL1        0.0801
     23 H          -0.7375    5.3749    4.4879 H       1  UNL1        0.0436
     24 C          -0.7099    4.4454    2.5959 C.2     1  UNL1        0.3128
     25 O          -0.6120    3.3143    3.0012 O.2     1  UNL1       -0.2504
     26 O          -0.3039    4.8029    1.3837 O.3     1  UNL1       -0.4581
     27 C          -0.9272    6.8913    3.0055 C.3     1  UNL1       -0.0499
     28 O          -3.2955    6.6592    4.0996 O.3     1  UNL1       -0.3468
     29 C          -3.2618    6.9959    5.4879 C.3     1  UNL1        0.1627
     30 H          -3.6877    6.1790    6.0705 H       1  UNL1        0.0911
     31 C          -4.0764    8.2704    5.7241 C.3     1  UNL1        0.0298
     32 C          -3.9858    8.6581    7.2033 C.3     1  UNL1        0.0991
     33 C          -2.5125    8.8307    7.5852 C.3     1  UNL1        0.1098
     34 H          -2.4358    9.0537    8.6494 H       1  UNL1        0.0648
     35 C          -1.7583    7.5346    7.2771 C.3     1  UNL1        0.0874
     36 H          -2.1643    6.7248    7.8834 H       1  UNL1        0.0621
     37 O          -1.9088    7.2148    5.8925 O.3     1  UNL1       -0.3456
     38 C          -0.2741    7.7189    7.5999 C.3     1  UNL1       -0.0361
     39 O          -1.9461    9.9038    6.8305 O.3     1  UNL1       -0.3864
     40 C          -4.7339    9.9726    7.4345 C.3     1  UNL1       -0.0331
     41 O          -4.5698    7.6285    8.0039 O.3     1  UNL1       -0.3740
     42 C          -5.9477    7.3806    7.7176 C.3     1  UNL1        0.0373
     43 C          -3.2828    5.3804    1.3442 C.3     1  UNL1       -0.0576
     44 O          -4.5624    2.7915    3.6938 O.3     1  UNL1       -0.3421
     45 C          -4.0781    1.8980    4.6984 C.3     1  UNL1        0.1909
     46 H          -3.5546    1.0677    4.2245 H       1  UNL1        0.0939
     47 C          -5.2565    1.3600    5.5143 C.3     1  UNL1        0.1482
     48 H          -5.9198    0.7900    4.8638 H       1  UNL1        0.0702
     49 C          -4.7246    0.4508    6.6263 C.3     1  UNL1        0.0124
     50 H          -4.2197   -0.4090    6.1859 H       1  UNL1        0.0879
     51 C          -3.7343    1.2411    7.4871 C.3     1  UNL1        0.0190
     52 C          -2.6147    1.7837    6.5950 C.3     1  UNL1        0.0642
     53 H          -2.0721    0.9517    6.1461 H       1  UNL1        0.0596
     54 O          -3.1802    2.5957    5.5639 O.3     1  UNL1       -0.3454
     55 C          -1.6534    2.6248    7.4373 C.3     1  UNL1       -0.0384
     56 C          -6.7695   -0.8445    6.6850 C.3     1  UNL1       -0.0430
     57 C          -5.3534   -0.7281    8.6456 C.3     1  UNL1       -0.0430
     58 O          -5.9748    2.4516    6.0926 O.3     1  UNL1       -0.3813
     59 C          -4.9595    2.9122    0.6849 C.3     1  UNL1       -0.0336
     60 O          -3.9985    1.0721    1.8518 O.3     1  UNL1       -0.3863
     61 C          -2.6566    3.3722   -1.6524 C.3     1  UNL1       -0.0556
     62 C           0.3022    2.2568   -2.6805 C.3     1  UNL1       -0.0532
     63 O           1.4183    1.6441    0.5736 O.3     1  UNL1       -0.3881
     64 C           2.5623    3.6476   -0.7550 C.3     1  UNL1       -0.0301
     65 O           0.4094    4.5804   -1.3776 O.3     1  UNL1       -0.3826
     66 H           2.3512    6.0645    2.8520 H       1  UNL1        0.0231
     67 H           1.0144    5.1503    3.5904 H       1  UNL1        0.0231
     68 H           2.7003    4.6855    3.9219 H       1  UNL1        0.0231
     69 H           1.6597    3.1473    2.2788 H       1  UNL1        0.0299
     70 H           2.9966    4.0616    1.5405 H       1  UNL1        0.0299
     71 H          -1.9220    3.3916    0.7746 H       1  UNL1        0.0300
     72 H          -1.7926    1.6734    1.1252 H       1  UNL1        0.0300
     73 H          -1.3535    7.0262    2.0114 H       1  UNL1        0.0238
     74 H          -1.3379    7.6411    3.6818 H       1  UNL1        0.0238
     75 H           0.1559    7.0023    2.9546 H       1  UNL1        0.0238
     76 H          -3.6759    9.0775    5.1108 H       1  UNL1        0.0343
     77 H          -5.1180    8.0915    5.4576 H       1  UNL1        0.0343
     78 H          -0.1596    7.9635    8.6559 H       1  UNL1        0.0255
     79 H           0.2627    6.7959    7.3805 H       1  UNL1        0.0255
     80 H           0.1318    8.5283    6.9932 H       1  UNL1        0.0255
     81 H          -1.0128   10.0696    7.0219 H       1  UNL1        0.2100
     82 H          -5.7802    9.8491    7.1553 H       1  UNL1        0.0258
     83 H          -4.6687   10.2473    8.4873 H       1  UNL1        0.0258
     84 H          -4.2855   10.7577    6.8257 H       1  UNL1        0.0258
     85 H          -6.3165    6.5865    8.3668 H       1  UNL1        0.0524
     86 H          -6.5241    8.2893    7.8915 H       1  UNL1        0.0524
     87 H          -6.0534    7.0771    6.6761 H       1  UNL1        0.0524
     88 H          -2.2038    5.3935    1.1905 H       1  UNL1        0.0234
     89 H          -3.7563    4.8064    0.5477 H       1  UNL1        0.0234
     90 H          -3.6640    6.4015    1.3322 H       1  UNL1        0.0234
     91 H          -3.3090    0.5861    8.2475 H       1  UNL1        0.0346
     92 H          -4.2507    2.0713    7.9689 H       1  UNL1        0.0346
     93 H          -2.1964    3.4564    7.8865 H       1  UNL1        0.0255
     94 H          -1.2222    2.0054    8.2237 H       1  UNL1        0.0255
     95 H          -0.8569    3.0119    6.8018 H       1  UNL1        0.0255
     96 H          -6.2390   -1.7151    6.2994 H       1  UNL1        0.0778
     97 H          -7.5873   -1.1721    7.3268 H       1  UNL1        0.0778
     98 H          -7.1702   -0.2653    5.8531 H       1  UNL1        0.0778
     99 H          -4.8181   -0.0355    9.2950 H       1  UNL1        0.0778
    100 H          -6.1984   -1.1541    9.1866 H       1  UNL1        0.0778
    101 H          -4.6811   -1.5276    8.3342 H       1  UNL1        0.0778
    102 H          -6.3365    3.0717    5.4447 H       1  UNL1        0.2103
    103 H          -5.0144    4.0005    0.7097 H       1  UNL1        0.0258
    104 H          -4.8766    2.5761   -0.3487 H       1  UNL1        0.0258
    105 H          -5.8605    2.4926    1.1323 H       1  UNL1        0.0258
    106 H          -4.1374    0.4745    1.1044 H       1  UNL1        0.2103
    107 H          -2.7911    3.1013   -2.6996 H       1  UNL1        0.0236
    108 H          -3.4920    3.9923   -1.3273 H       1  UNL1        0.0236
    109 H          -1.7257    3.9275   -1.5374 H       1  UNL1        0.0236
    110 H          -0.3393    3.1170   -2.8720 H       1  UNL1        0.0237
    111 H           1.3461    2.5692   -2.7060 H       1  UNL1        0.0237
    112 H           0.1310    1.4987   -3.4448 H       1  UNL1        0.0237
    113 H           1.0663    0.7970    0.8796 H       1  UNL1        0.2099
    114 H           2.6333    3.0436   -1.6595 H       1  UNL1        0.0259
    115 H           3.0094    4.6252   -0.9348 H       1  UNL1        0.0259
    116 H           3.0921    3.1495    0.0570 H       1  UNL1        0.0259
    117 H           0.8053    5.4454   -1.5516 H       1  UNL1        0.2104
    118 N          -5.8566    0.0130    7.4699 N.4     1  UNL1        0.2351
    119 H          -6.3715    0.8406    7.7927 H       1  UNL1        0.2031
@<TRIPOS>UNITY_ATOM_ATTR
118 1
charge 1
@<TRIPOS>BOND
     1     1     2    1
     2     1    66    1
     3     1    67    1
     4     1    68    1
     5     2     3    1
     6     2    69    1
     7     2    70    1
     8     3     4    1
     9     3    26    1
    10     3     5    1
    11     5     6    1
    12     5    64    1
    13     5    65    1
    14     6     7    1
    15     6     8    1
    16     6    63    1
    17     8     9    1
    18     8    10    1
    19     8    62    1
    20    10    11    2
    21    10    12    1
    22    12    13    1
    23    12    14    1
    24    12    61    1
    25    14    15    1
    26    14    71    1
    27    14    72    1
    28    15    16    1
    29    15    59    1
    30    15    60    1
    31    16    17    1
    32    16    18    1
    33    16    44    1
    34    18    19    1
    35    18    20    1
    36    18    43    1
    37    20    21    1
    38    20    22    1
    39    20    28    1
    40    22    23    1
    41    22    24    1
    42    22    27    1
    43    24    25    2
    44    24    26    1
    45    27    73    1
    46    27    74    1
    47    27    75    1
    48    28    29    1
    49    29    30    1
    50    29    37    1
    51    29    31    1
    52    31    32    1
    53    31    76    1
    54    31    77    1
    55    32    33    1
    56    32    40    1
    57    32    41    1
    58    33    34    1
    59    33    35    1
    60    33    39    1
    61    35    36    1
    62    35    37    1
    63    35    38    1
    64    38    78    1
    65    38    79    1
    66    38    80    1
    67    39    81    1
    68    40    82    1
    69    40    83    1
    70    40    84    1
    71    41    42    1
    72    42    85    1
    73    42    86    1
    74    42    87    1
    75    43    88    1
    76    43    89    1
    77    43    90    1
    78    44    45    1
    79    45    46    1
    80    45    54    1
    81    45    47    1
    82    47    48    1
    83    47    49    1
    84    47    58    1
    85    49    50    1
    86    49    51    1
    87    49   118    1
    88    51    52    1
    89    51    91    1
    90    51    92    1
    91    52    53    1
    92    52    54    1
    93    52    55    1
    94    55    93    1
    95    55    94    1
    96    55    95    1
    97    56    96    1
    98    56    97    1
    99    56    98    1
   100    56   118    1
   101    57    99    1
   102    57   100    1
   103    57   101    1
   104    57   118    1
   105    58   102    1
   106    59   103    1
   107    59   104    1
   108    59   105    1
   109    60   106    1
   110    61   107    1
   111    61   108    1
   112    61   109    1
   113    62   110    1
   114    62   111    1
   115    62   112    1
   116    63   113    1
   117    64   114    1
   118    64   115    1
   119    64   116    1
   120    65   117    1
   121   118   119    1
