@<TRIPOS>MOLECULE
ZINC00000610
 44 45 0 0 0
SMALL
GASTEIGER

@<TRIPOS>ATOM
      1 C           5.7217   -1.7328    1.1028 C.3     1  UNL1       -0.0184
      2 C           6.1308   -0.8242   -0.0583 C.3     1  UNL1        0.0115
      3 H           7.1551   -0.4826    0.0912 H       1  UNL1        0.0882
      4 C           5.1935    0.3837   -0.1154 C.3     1  UNL1        0.1317
      5 O           3.8407   -0.0672   -0.2090 O.3     1  UNL1       -0.4864
      6 C           2.8751    0.8872   -0.2694 C.ar    1  UNL1        0.1208
      7 C           1.5403    0.5203   -0.3613 C.ar    1  UNL1       -0.0199
      8 C           0.5606    1.4923   -0.4221 C.ar    1  UNL1       -0.0583
      9 C           0.9094    2.8299   -0.3913 C.ar    1  UNL1       -0.0615
     10 C           2.2389    3.1982   -0.2997 C.ar    1  UNL1       -0.0583
     11 C           3.2224    2.2300   -0.2387 C.ar    1  UNL1       -0.0199
     12 C           4.7574   -2.2740   -1.4274 C.3     1  UNL1       -0.0175
     13 C           4.6336   -2.9012   -2.8174 C.3     1  UNL1        0.0626
     14 CL          2.9923   -3.6231   -3.0070 Cl      1  UNL1       -0.1199
     15 C           7.1671   -2.5083   -1.4556 C.3     1  UNL1       -0.0055
     16 C           8.4471   -1.7338   -1.6364 C.ar    1  UNL1       -0.0029
     17 C           8.8164   -1.2928   -2.8934 C.ar    1  UNL1       -0.0535
     18 C           9.9880   -0.5778   -3.0584 C.ar    1  UNL1       -0.0613
     19 C          10.7956   -0.3133   -1.9682 C.ar    1  UNL1       -0.0617
     20 C          10.4292   -0.7592   -0.7121 C.ar    1  UNL1       -0.0613
     21 C           9.2548   -1.4693   -0.5462 C.ar    1  UNL1       -0.0535
     22 H           5.7866   -1.1779    2.0387 H       1  UNL1        0.0285
     23 H           4.6974   -2.0745    0.9532 H       1  UNL1        0.0285
     24 H           6.3894   -2.5933    1.1435 H       1  UNL1        0.0285
     25 H           5.4355    0.9904   -0.9881 H       1  UNL1        0.0754
     26 H           5.3156    0.9814    0.7878 H       1  UNL1        0.0754
     27 H           1.2674   -0.5244   -0.3857 H       1  UNL1        0.0654
     28 H          -0.4786    1.2072   -0.4940 H       1  UNL1        0.0619
     29 H           0.1423    3.5884   -0.4435 H       1  UNL1        0.0618
     30 H           2.5088    4.2436   -0.2762 H       1  UNL1        0.0619
     31 H           4.2608    2.5181   -0.1668 H       1  UNL1        0.0654
     32 H           4.7057   -3.0561   -0.6699 H       1  UNL1        0.0826
     33 H           3.9430   -1.5658   -1.2745 H       1  UNL1        0.0826
     34 H           4.7829   -2.1338   -3.5769 H       1  UNL1        0.0482
     35 H           5.3883   -3.6791   -2.9335 H       1  UNL1        0.0482
     36 H           7.2382   -3.1234   -0.5585 H       1  UNL1        0.0867
     37 H           7.0040   -3.1482   -2.3228 H       1  UNL1        0.0867
     38 H           8.1876   -1.5033   -3.7458 H       1  UNL1        0.0622
     39 H          10.2741   -0.2290   -4.0397 H       1  UNL1        0.0618
     40 H          11.7128    0.2421   -2.0977 H       1  UNL1        0.0618
     41 H          11.0602   -0.5526    0.1397 H       1  UNL1        0.0618
     42 H           8.9685   -1.8178    0.4351 H       1  UNL1        0.0622
     43 N           6.0449   -1.5532   -1.3412 N.4     1  UNL1        0.2437
     44 H           6.1015   -0.8782   -2.1128 H       1  UNL1        0.2041
@<TRIPOS>UNITY_ATOM_ATTR
43 1
charge 1
@<TRIPOS>BOND
     1     1     2    1
     2     1    22    1
     3     1    23    1
     4     1    24    1
     5     2     3    1
     6     2     4    1
     7     2    43    1
     8     4     5    1
     9     4    25    1
    10     4    26    1
    11     5     6    1
    12     6    11   ar
    13     6     7   ar
    14     7     8   ar
    15     7    27    1
    16     8     9   ar
    17     8    28    1
    18     9    10   ar
    19     9    29    1
    20    10    11   ar
    21    10    30    1
    22    11    31    1
    23    12    13    1
    24    12    32    1
    25    12    33    1
    26    12    43    1
    27    13    14    1
    28    13    34    1
    29    13    35    1
    30    15    16    1
    31    15    36    1
    32    15    37    1
    33    15    43    1
    34    16    21   ar
    35    16    17   ar
    36    17    18   ar
    37    17    38    1
    38    18    19   ar
    39    18    39    1
    40    19    20   ar
    41    19    40    1
    42    20    21   ar
    43    20    41    1
    44    21    42    1
    45    43    44    1
