@<TRIPOS>MOLECULE
ZINC00001677
 21 22 0 0 0
SMALL
GASTEIGER

@<TRIPOS>ATOM
      1 C          -3.8200    6.1057    0.0701 C.3     1  UNL1       -0.0359
      2 C          -2.5137    5.3544    0.0540 C.2     1  UNL1        0.0004
      3 C          -1.3600    6.0355    0.0467 C.2     1  UNL1       -0.0078
      4 C          -0.0641    5.3308    0.0304 C.2     1  UNL1        0.1871
      5 O           0.9735    5.9627    0.0242 O.2     1  UNL1       -0.2872
      6 C          -0.0327    3.8523    0.0222 C.ar    1  UNL1        0.0325
      7 C           1.1748    3.1645    0.0074 C.ar    1  UNL1       -0.0503
      8 C           1.1772    1.7782    0.0004 C.ar    1  UNL1       -0.0610
      9 C          -0.0126    1.0758    0.0080 C.ar    1  UNL1       -0.0610
     10 C          -1.2251    1.7478    0.0174 C.ar    1  UNL1       -0.0502
     11 C          -1.2438    3.1374    0.0299 C.ar    1  UNL1        0.0327
     12 C          -2.5230    3.8793    0.0461 C.2     1  UNL1        0.1897
     13 O          -3.5775    3.2762    0.0533 O.2     1  UNL1       -0.2870
     14 H          -4.1254    6.2812    1.1016 H       1  UNL1        0.0279
     15 H          -3.6959    7.0611   -0.4397 H       1  UNL1        0.0279
     16 H          -4.5833    5.5181   -0.4399 H       1  UNL1        0.0279
     17 H          -1.3790    7.1153    0.0523 H       1  UNL1        0.0660
     18 H           2.1080    3.7081    0.0017 H       1  UNL1        0.0625
     19 H           2.1155    1.2436   -0.0115 H       1  UNL1        0.0618
     20 H           0.0021   -0.0041    0.0020 H       1  UNL1        0.0618
     21 H          -2.1519    1.1934    0.0187 H       1  UNL1        0.0625
@<TRIPOS>BOND
     1     1     2    1
     2     1    14    1
     3     1    15    1
     4     1    16    1
     5     2    12    1
     6     2     3    2
     7     3     4    1
     8     3    17    1
     9     4     5    2
    10     4     6    1
    11     6    11   ar
    12     6     7   ar
    13     7     8   ar
    14     7    18    1
    15     8     9   ar
    16     8    19    1
    17     9    10   ar
    18     9    20    1
    19    10    11   ar
    20    10    21    1
    21    11    12    1
    22    12    13    2
