@<TRIPOS>MOLECULE
ZINC08101158
 110 113 0 0 0
SMALL
GASTEIGER

@<TRIPOS>ATOM
      1 C           7.4270   -3.1376    2.1234 C.3     1  UNL1       -0.0384
      2 C           6.5829   -2.0416    1.4697 C.3     1  UNL1        0.0642
      3 H           5.6326   -1.9521    1.9960 H       1  UNL1        0.0596
      4 C           7.3331   -0.7090    1.5403 C.3     1  UNL1        0.0190
      5 C           6.5091    0.3701    0.8311 C.3     1  UNL1        0.0124
      6 H           5.5610    0.5073    1.3511 H       1  UNL1        0.0879
      7 C           6.2433   -0.0716   -0.6113 C.3     1  UNL1        0.1482
      8 H           7.1893   -0.1592   -1.1456 H       1  UNL1        0.0702
      9 C           5.5352   -1.4289   -0.5988 C.3     1  UNL1        0.1908
     10 H           5.3816   -1.7681   -1.6232 H       1  UNL1        0.0939
     11 O           6.3408   -2.3785    0.1022 O.3     1  UNL1       -0.3454
     12 O           4.2713   -1.3009    0.0554 O.3     1  UNL1       -0.3447
     13 C           3.5048   -2.5017    0.0750 C.3     1  UNL1        0.0694
     14 H           4.2032   -3.3506    0.1472 H       1  UNL1        0.0603
     15 C           2.6990   -2.6657   -1.2149 C.3     1  UNL1       -0.0140
     16 H           1.7212   -2.2054   -1.0908 H       1  UNL1        0.0324
     17 C           3.4412   -2.0219   -2.3797 C.3     1  UNL1       -0.0096
     18 C           2.5734   -1.9525   -3.6383 C.3     1  UNL1        0.1508
     19 C           2.3677   -3.1950   -4.4917 C.3     1  UNL1        0.0850
     20 O           3.2809   -2.1663   -4.8800 O.3     1  UNL1       -0.3603
     21 C           1.5489   -0.8503   -3.6866 C.2     1  UNL1        0.1723
     22 O           1.7115    0.0626   -4.4686 O.2     1  UNL1       -0.2939
     23 C           0.3255   -0.8533   -2.8019 C.3     1  UNL1        0.0440
     24 H           0.6062   -0.9307   -1.8452 H       1  UNL1        0.0401
     25 C          -0.4356    0.4538   -3.0222 C.3     1  UNL1        0.0705
     26 H          -0.7587    0.4722   -4.0812 H       1  UNL1        0.0604
     27 C          -1.6729    0.5756   -2.1532 C.3     1  UNL1        0.0197
     28 H          -2.2841   -0.3323   -2.2394 H       1  UNL1        0.0359
     29 C          -1.3721    0.8162   -0.6788 C.3     1  UNL1        0.1052
     30 H          -2.3206    0.7042   -0.1209 H       1  UNL1        0.0734
     31 O          -0.4386   -0.1565   -0.1593 O.3     1  UNL1       -0.4610
     32 C          -0.4726   -0.4053    1.1597 C.2     1  UNL1        0.3127
     33 O          -1.2031    0.2417    1.8799 O.2     1  UNL1       -0.2504
     34 C           0.3773   -1.4884    1.7663 C.3     1  UNL1        0.0801
     35 H           0.1055   -2.4483    1.3246 H       1  UNL1        0.0436
     36 C           1.8615   -1.2162    1.5109 C.3     1  UNL1        0.0792
     37 H           2.2857   -0.7255    2.3931 H       1  UNL1        0.0608
     38 C           2.5808   -2.5430    1.2865 C.3     1  UNL1        0.0100
     39 H           1.8325   -3.3319    1.1431 H       1  UNL1        0.0348
     40 C           3.4061   -2.8913    2.5332 C.3     1  UNL1       -0.0577
     41 O           2.0058   -0.3554    0.3856 O.3     1  UNL1       -0.3469
     42 C           2.0318    1.0345    0.7166 C.3     1  UNL1        0.1624
     43 H           1.0976    1.3091    1.2063 H       1  UNL1        0.0910
     44 C           2.2005    1.8605   -0.5613 C.3     1  UNL1        0.0272
     45 C           2.2880    3.3447   -0.1927 C.3     1  UNL1        0.0911
     46 H           1.3550    3.6600    0.2743 H       1  UNL1        0.0624
     47 C           3.4466    3.5485    0.7884 C.3     1  UNL1        0.1073
     48 H           3.4816    4.5927    1.0989 H       1  UNL1        0.0645
     49 C           3.2297    2.6572    2.0141 C.3     1  UNL1        0.0871
     50 H           2.3113    2.9532    2.5211 H       1  UNL1        0.0621
     51 O           3.1263    1.2941    1.5980 O.3     1  UNL1       -0.3456
     52 C           4.4131    2.8100    2.9718 C.3     1  UNL1       -0.0361
     53 O           4.6774    3.1962    0.1536 O.3     1  UNL1       -0.3867
     54 O           2.5191    4.1174   -1.3724 O.3     1  UNL1       -0.3770
     55 C           1.3253    4.5792   -2.0078 C.3     1  UNL1        0.0369
     56 C           0.1218   -1.5407    3.2767 C.3     1  UNL1       -0.0499
     57 C          -0.8679    2.2383   -0.4414 C.3     1  UNL1       -0.0274
     58 C          -2.5315    1.7426   -2.6753 C.3     1  UNL1       -0.0567
     59 O           0.4490    1.5590   -2.8354 O.3     1  UNL1       -0.3907
     60 C          -0.5586   -2.0432   -3.1844 C.3     1  UNL1       -0.0532
     61 C           2.5129   -4.1649   -1.4799 C.3     1  UNL1       -0.0599
     62 O           5.4147    0.8934   -1.2625 O.3     1  UNL1       -0.3813
     63 C           7.6886    1.9945    2.1850 C.3     1  UNL1       -0.0430
     64 C           8.4004    1.5690   -0.0899 C.3     1  UNL1       -0.0430
     65 H           7.6124   -2.8800    3.1662 H       1  UNL1        0.0255
     66 H           6.8927   -4.0863    2.0730 H       1  UNL1        0.0255
     67 H           8.3771   -3.2272    1.5968 H       1  UNL1        0.0255
     68 H           8.3011   -0.8095    1.0495 H       1  UNL1        0.0346
     69 H           7.4799   -0.4285    2.5833 H       1  UNL1        0.0346
     70 H           3.7411   -1.0041   -2.1107 H       1  UNL1        0.0301
     71 H           4.3435   -2.6009   -2.6035 H       1  UNL1        0.0301
     72 H           2.8014   -4.1410   -4.1681 H       1  UNL1        0.0593
     73 H           1.4428   -3.2833   -5.0659 H       1  UNL1        0.0593
     74 H           2.7450   -2.9697    3.3963 H       1  UNL1        0.0234
     75 H           3.9152   -3.8425    2.3779 H       1  UNL1        0.0234
     76 H           4.1440   -2.1090    2.7107 H       1  UNL1        0.0234
     77 H           1.3444    1.6976   -1.2160 H       1  UNL1        0.0340
     78 H           3.1138    1.5580   -1.0737 H       1  UNL1        0.0340
     79 H           5.3431    2.6329    2.4314 H       1  UNL1        0.0255
     80 H           4.4190    3.8190    3.3840 H       1  UNL1        0.0255
     81 H           4.3204    2.0869    3.7822 H       1  UNL1        0.0255
     82 H           5.4553    3.3012    0.7183 H       1  UNL1        0.2100
     83 H           1.5830    5.1030   -2.9283 H       1  UNL1        0.0524
     84 H           0.6853    3.7283   -2.2409 H       1  UNL1        0.0524
     85 H           0.7971    5.2586   -1.3388 H       1  UNL1        0.0524
     86 H           0.3994   -0.5868    3.7253 H       1  UNL1        0.0238
     87 H          -0.9350   -1.7345    3.4599 H       1  UNL1        0.0238
     88 H           0.7194   -2.3378    3.7189 H       1  UNL1        0.0238
     89 H          -1.6693    2.9474   -0.6493 H       1  UNL1        0.0265
     90 H          -0.5505    2.3428    0.5962 H       1  UNL1        0.0265
     91 H          -0.0243    2.4397   -1.1015 H       1  UNL1        0.0265
     92 H          -2.8222    1.5465   -3.7074 H       1  UNL1        0.0234
     93 H          -3.4248    1.8408   -2.0586 H       1  UNL1        0.0234
     94 H          -1.9551    2.6666   -2.6296 H       1  UNL1        0.0234
     95 H           1.2046    1.5644   -3.4388 H       1  UNL1        0.2098
     96 H          -0.0010   -2.9695   -3.0460 H       1  UNL1        0.0237
     97 H          -1.4458   -2.0551   -2.5512 H       1  UNL1        0.0237
     98 H          -0.8586   -1.9523   -4.2284 H       1  UNL1        0.0237
     99 H           1.9779   -4.6177   -0.6451 H       1  UNL1        0.0233
    100 H           1.9399   -4.3035   -2.3967 H       1  UNL1        0.0233
    101 H           3.4887   -4.6389   -1.5861 H       1  UNL1        0.0233
    102 H           5.2025    0.6744   -2.1801 H       1  UNL1        0.2103
    103 H           8.4557    1.2955    2.5184 H       1  UNL1        0.0778
    104 H           8.0955    3.0057    2.1808 H       1  UNL1        0.0778
    105 H           6.8360    1.9487    2.8626 H       1  UNL1        0.0778
    106 H           8.0446    1.3706   -1.1009 H       1  UNL1        0.0778
    107 H           8.9353    2.5186   -0.0728 H       1  UNL1        0.0778
    108 H           9.0709    0.7686    0.2230 H       1  UNL1        0.0778
    109 N           7.2378    1.6560    0.8186 N.4     1  UNL1        0.2351
    110 H           6.6070    2.3935    0.4833 H       1  UNL1        0.2031
@<TRIPOS>UNITY_ATOM_ATTR
109 1
charge 1
@<TRIPOS>BOND
     1     1     2    1
     2     1    65    1
     3     1    66    1
     4     1    67    1
     5     2     3    1
     6     2    11    1
     7     2     4    1
     8     4     5    1
     9     4    68    1
    10     4    69    1
    11     5     6    1
    12     5     7    1
    13     5   109    1
    14     7     8    1
    15     7     9    1
    16     7    62    1
    17     9    10    1
    18     9    11    1
    19     9    12    1
    20    12    13    1
    21    13    14    1
    22    13    38    1
    23    13    15    1
    24    15    16    1
    25    15    17    1
    26    15    61    1
    27    17    18    1
    28    17    70    1
    29    17    71    1
    30    18    20    1
    31    18    19    1
    32    18    21    1
    33    19    20    1
    34    19    72    1
    35    19    73    1
    36    21    22    2
    37    21    23    1
    38    23    24    1
    39    23    25    1
    40    23    60    1
    41    25    26    1
    42    25    27    1
    43    25    59    1
    44    27    28    1
    45    27    29    1
    46    27    58    1
    47    29    30    1
    48    29    31    1
    49    29    57    1
    50    31    32    1
    51    32    33    2
    52    32    34    1
    53    34    35    1
    54    34    36    1
    55    34    56    1
    56    36    37    1
    57    36    38    1
    58    36    41    1
    59    38    39    1
    60    38    40    1
    61    40    74    1
    62    40    75    1
    63    40    76    1
    64    41    42    1
    65    42    43    1
    66    42    51    1
    67    42    44    1
    68    44    45    1
    69    44    77    1
    70    44    78    1
    71    45    46    1
    72    45    47    1
    73    45    54    1
    74    47    48    1
    75    47    49    1
    76    47    53    1
    77    49    50    1
    78    49    51    1
    79    49    52    1
    80    52    79    1
    81    52    80    1
    82    52    81    1
    83    53    82    1
    84    54    55    1
    85    55    83    1
    86    55    84    1
    87    55    85    1
    88    56    86    1
    89    56    87    1
    90    56    88    1
    91    57    89    1
    92    57    90    1
    93    57    91    1
    94    58    92    1
    95    58    93    1
    96    58    94    1
    97    59    95    1
    98    60    96    1
    99    60    97    1
   100    60    98    1
   101    61    99    1
   102    61   100    1
   103    61   101    1
   104    62   102    1
   105    63   103    1
   106    63   104    1
   107    63   105    1
   108    63   109    1
   109    64   106    1
   110    64   107    1
   111    64   108    1
   112    64   109    1
   113   109   110    1
