@<TRIPOS>MOLECULE
ZINC03830197
 56 59 0 0 0
SMALL
GASTEIGER

@<TRIPOS>ATOM
      1 C          -0.9744   -9.7726    2.7566 C.3     1  UNL1       -0.0058
      2 C          -1.6314   -9.1833    1.5352 C.2     1  UNL1        0.1339
      3 O          -2.7461   -9.5279    1.2236 O.2     1  UNL1       -0.2974
      4 C          -0.8992   -8.1662    0.7045 C.3     1  UNL1        0.0233
      5 H           0.0723   -8.4007    0.6704 H       1  UNL1        0.0383
      6 C          -1.5022   -8.0926   -0.7204 C.3     1  UNL1       -0.0427
      7 C          -1.8041   -6.5924   -0.9918 C.3     1  UNL1       -0.0488
      8 C          -0.9147   -5.8850    0.0402 C.3     1  UNL1       -0.0311
      9 H           0.1344   -6.0295   -0.2980 H       1  UNL1        0.0309
     10 C          -1.1164   -6.7545    1.2924 C.3     1  UNL1       -0.0128
     11 C          -0.1322   -6.3940    2.3843 C.3     1  UNL1        0.0124
     12 C           0.1440   -4.8923    2.3057 C.2     1  UNL1        0.1378
     13 O           1.1990   -4.4530    2.6999 O.2     1  UNL1       -0.2971
     14 C          -0.9406   -4.0354    1.7132 C.3     1  UNL1        0.0262
     15 H          -1.8035   -4.2162    2.1852 H       1  UNL1        0.0385
     16 C          -1.1126   -4.4217    0.2426 C.3     1  UNL1       -0.0277
     17 H          -0.3088   -3.9133   -0.3095 H       1  UNL1        0.0310
     18 C          -2.4273   -3.8856   -0.3070 C.3     1  UNL1       -0.0490
     19 C          -2.6400   -2.4524    0.2063 C.3     1  UNL1       -0.0493
     20 C          -1.2863   -1.8688    0.5801 C.3     1  UNL1       -0.0326
     21 H          -0.5894   -2.0846   -0.2412 H       1  UNL1        0.0307
     22 C          -0.7387   -2.5384    1.8467 C.3     1  UNL1       -0.0193
     23 C           0.7045   -2.0973    2.0370 C.3     1  UNL1       -0.0444
     24 C           0.7783   -0.5695    2.1389 C.3     1  UNL1       -0.0263
     25 C           0.1294    0.1160    0.9428 C.3     1  UNL1        0.0555
     26 H           0.6967   -0.1189    0.0404 H       1  UNL1        0.0593
     27 C          -1.3189   -0.3570    0.7580 C.3     1  UNL1       -0.0235
     28 O           0.1385    1.5317    1.1422 O.3     1  UNL1       -0.3918
     29 C          -1.5552   -2.0848    3.0660 C.3     1  UNL1       -0.0587
     30 C          -2.5517   -6.6899    1.8170 C.3     1  UNL1       -0.0583
     31 H          -1.1908   -9.2110    3.5552 H       1  UNL1        0.0306
     32 H          -1.3433  -10.7861    2.9144 H       1  UNL1        0.0306
     33 H           0.1057   -9.7976    2.6118 H       1  UNL1        0.0306
     34 H          -0.7856   -8.4658   -1.4505 H       1  UNL1        0.0272
     35 H          -2.4237   -8.6720   -0.7669 H       1  UNL1        0.0272
     36 H          -2.8540   -6.3676   -0.8417 H       1  UNL1        0.0268
     37 H          -1.4976   -6.3218   -2.0044 H       1  UNL1        0.0268
     38 H          -0.5234   -6.6249    3.2752 H       1  UNL1        0.0347
     39 H           0.8038   -6.9466    2.2502 H       1  UNL1        0.0347
     40 H          -2.3912   -3.8773   -1.3967 H       1  UNL1        0.0268
     41 H          -3.2530   -4.5130    0.0249 H       1  UNL1        0.0268
     42 H          -3.3100   -2.4606    1.0614 H       1  UNL1        0.0268
     43 H          -3.0856   -1.8494   -0.5904 H       1  UNL1        0.0268
     44 H           1.0949   -2.5154    2.9726 H       1  UNL1        0.0272
     45 H           1.3167   -2.4443    1.2048 H       1  UNL1        0.0272
     46 H           1.8364   -0.2757    2.1749 H       1  UNL1        0.0290
     47 H           0.3121   -0.2248    3.0601 H       1  UNL1        0.0290
     48 H          -1.9334   -0.0534    1.5926 H       1  UNL1        0.0293
     49 H          -1.7217    0.0967   -0.1569 H       1  UNL1        0.0293
     50 H           1.0215    1.9057    1.2668 H       1  UNL1        0.2098
     51 H          -2.5990   -2.3677    2.9299 H       1  UNL1        0.0235
     52 H          -1.1633   -2.5625    3.9639 H       1  UNL1        0.0235
     53 H          -1.4828   -1.0021    3.1694 H       1  UNL1        0.0235
     54 H          -3.2247   -7.1463    1.0911 H       1  UNL1        0.0235
     55 H          -2.6176   -7.2285    2.7623 H       1  UNL1        0.0235
     56 H          -2.8356   -5.6489    1.9713 H       1  UNL1        0.0235
@<TRIPOS>BOND
     1     1     2    1
     2     1    31    1
     3     1    32    1
     4     1    33    1
     5     2     3    2
     6     2     4    1
     7     4     5    1
     8     4    10    1
     9     4     6    1
    10     6     7    1
    11     6    34    1
    12     6    35    1
    13     7     8    1
    14     7    36    1
    15     7    37    1
    16     8     9    1
    17     8    16    1
    18     8    10    1
    19    10    11    1
    20    10    30    1
    21    11    12    1
    22    11    38    1
    23    11    39    1
    24    12    13    2
    25    12    14    1
    26    14    15    1
    27    14    22    1
    28    14    16    1
    29    16    17    1
    30    16    18    1
    31    18    19    1
    32    18    40    1
    33    18    41    1
    34    19    20    1
    35    19    42    1
    36    19    43    1
    37    20    21    1
    38    20    27    1
    39    20    22    1
    40    22    23    1
    41    22    29    1
    42    23    24    1
    43    23    44    1
    44    23    45    1
    45    24    25    1
    46    24    46    1
    47    24    47    1
    48    25    26    1
    49    25    27    1
    50    25    28    1
    51    27    48    1
    52    27    49    1
    53    28    50    1
    54    29    51    1
    55    29    52    1
    56    29    53    1
    57    30    54    1
    58    30    55    1
    59    30    56    1
