@<TRIPOS>MOLECULE
ZINC00002137
 32 32 0 0 0
SMALL
GASTEIGER

@<TRIPOS>ATOM
      1 C          -0.0187    1.5258    0.0104 C.3     1  UNL1       -0.0361
      2 C           0.0021   -0.0041    0.0020 C.3     1  UNL1        0.0634
      3 C           0.7182   -0.4975   -1.2568 C.3     1  UNL1       -0.0239
      4 C          -0.0218    0.0093   -2.4963 C.3     1  UNL1       -0.0450
      5 C          -1.4572   -0.5202   -2.4855 C.3     1  UNL1       -0.0125
      6 C          -2.1733   -0.0268   -1.2266 C.3     1  UNL1       -0.0450
      7 C          -1.4333   -0.5336    0.0129 C.3     1  UNL1       -0.0239
      8 C          -2.1972   -0.0134   -3.7250 C.3     1  UNL1        0.0633
      9 C          -1.4810   -0.5068   -4.9838 C.3     1  UNL1       -0.0361
     10 C          -3.6325   -0.5430   -3.7141 C.3     1  UNL1       -0.0361
     11 O          -2.2165    1.4155   -3.7171 O.3     1  UNL1       -0.3888
     12 O           0.6932   -0.4774    1.1597 O.3     1  UNL1       -0.3888
     13 H           1.0039    1.9031    0.0027 H       1  UNL1        0.0257
     14 H          -0.5459    1.8868   -0.8726 H       1  UNL1        0.0257
     15 H          -0.5289    1.8773    0.9072 H       1  UNL1        0.0257
     16 H           1.7408   -0.1202   -1.2645 H       1  UNL1        0.0293
     17 H           0.7330   -1.5874   -1.2628 H       1  UNL1        0.0293
     18 H           0.4884   -0.3422   -3.3931 H       1  UNL1        0.0270
     19 H          -0.0366    1.0992   -2.4903 H       1  UNL1        0.0270
     20 H          -1.4424   -1.6101   -2.4914 H       1  UNL1        0.0328
     21 H          -3.1959   -0.4041   -1.2189 H       1  UNL1        0.0270
     22 H          -2.1881    1.0631   -1.2207 H       1  UNL1        0.0270
     23 H          -1.4185   -1.6235    0.0069 H       1  UNL1        0.0293
     24 H          -1.9435   -0.1821    0.9097 H       1  UNL1        0.0293
     25 H          -1.4662   -1.5967   -4.9898 H       1  UNL1        0.0257
     26 H          -2.0082   -0.1457   -5.8668 H       1  UNL1        0.0257
     27 H          -0.4584   -0.1295   -4.9915 H       1  UNL1        0.0257
     28 H          -4.1427   -0.1915   -2.8173 H       1  UNL1        0.0257
     29 H          -4.1597   -0.1819   -4.5972 H       1  UNL1        0.0257
     30 H          -3.6178   -1.6329   -3.7201 H       1  UNL1        0.0257
     31 H          -2.6708    1.8068   -4.4758 H       1  UNL1        0.2101
     32 H           1.6114   -0.1800    1.2187 H       1  UNL1        0.2101
@<TRIPOS>BOND
     1     1     2    1
     2     1    13    1
     3     1    14    1
     4     1    15    1
     5     2     7    1
     6     2     3    1
     7     2    12    1
     8     3     4    1
     9     3    16    1
    10     3    17    1
    11     4     5    1
    12     4    18    1
    13     4    19    1
    14     5     6    1
    15     5     8    1
    16     5    20    1
    17     6     7    1
    18     6    21    1
    19     6    22    1
    20     7    23    1
    21     7    24    1
    22     8     9    1
    23     8    10    1
    24     8    11    1
    25     9    25    1
    26     9    26    1
    27     9    27    1
    28    10    28    1
    29    10    29    1
    30    10    30    1
    31    11    31    1
    32    12    32    1
