@<TRIPOS>MOLECULE
ZINC03831068
 51 54 0 0 0
SMALL
GASTEIGER

@<TRIPOS>ATOM
      1 C           5.5017    6.5340    0.6508 C.3     1  UNL1       -0.0635
      2 C           5.4423    7.9015    1.3343 C.3     1  UNL1       -0.0352
      3 CA          4.3249    8.7372    0.7067 C.3     1  UNL1        0.0460
      4 HA          4.4768    8.7962   -0.3710 H       1  UNL1        0.0521
      5 C           4.3457   10.1463    1.3025 C.3     1  UNL1        0.0625
      6 O           4.2634   10.0625    2.7267 O.3     1  UNL1       -0.3932
      7 N           3.0308    8.1090    0.9838 N.am    1  UNL1       -0.3096
      8 C           1.9844    8.3313    0.1640 C.2     1  UNL1        0.2253
      9 O           2.1141    9.0516   -0.8031 O.2     1  UNL1       -0.2750
     10 C           0.6532    7.6851    0.4491 C.3     1  UNL1        0.0942
     11 H           0.2865    8.0122    1.4220 H       1  UNL1        0.0490
     12 C          -0.3535    8.0744   -0.6396 C.3     1  UNL1       -0.0166
     13 C          -1.4693    5.9104   -0.5251 C.3     1  UNL1        0.0092
     14 H          -1.4851    5.6880   -1.5920 H       1  UNL1        0.0907
     15 C          -2.6906    5.2170    0.0942 C.3     1  UNL1        0.0219
     16 C          -2.4889    3.7246    0.0583 C.ar    1  UNL1       -0.0161
     17 C          -3.2915    2.6657    0.0529 C.ar    1  UNL1        0.0061
     18 N          -2.5460    1.4970    0.0302 N.ar    1  UNL1       -0.3603
     19 H          -2.9201    0.6021    0.0204 H       1  UNL1        0.1653
     20 C          -1.2142    1.7828    0.0174 C.ar    1  UNL1        0.0473
     21 C          -1.1371    3.1783    0.0312 C.ar    1  UNL1        0.0106
     22 C           0.0537    3.9342    0.0143 C.ar    1  UNL1       -0.0074
     23 C           1.2210    3.2052    0.0031 C.ar    1  UNL1       -0.0534
     24 C           1.1659    1.8130    0.0007 C.ar    1  UNL1       -0.0592
     25 C          -0.0126    1.0758    0.0080 C.ar    1  UNL1       -0.0378
     26 C          -0.1560    5.3949    0.0011 C.2     1  UNL1        0.0052
     27 C           0.8047    6.1877    0.4416 C.2     1  UNL1       -0.0581
     28 C          -2.6845    7.8633   -1.2494 C.3     1  UNL1       -0.0425
     29 H           4.5484    6.0215    0.7801 H       1  UNL1        0.0230
     30 H           5.7012    6.6675   -0.4124 H       1  UNL1        0.0230
     31 H           6.2978    5.9386    1.0979 H       1  UNL1        0.0230
     32 H           6.3956    8.4140    1.2050 H       1  UNL1        0.0281
     33 H           5.2428    7.7680    2.3975 H       1  UNL1        0.0281
     34 H1          5.2725   10.6462    1.0209 H       1  UNL1        0.0575
     35 H2          3.4966   10.7142    0.9223 H       1  UNL1        0.0575
     36 H           4.2715   10.9207    3.1723 H       1  UNL1        0.2095
     37 H           2.9270    7.5329    1.7573 H       1  UNL1        0.1491
     38 H          -0.5342    9.1487   -0.6050 H       1  UNL1        0.0825
     39 H           0.0400    7.7998   -1.6183 H       1  UNL1        0.0825
     40 H          -3.5835    5.4771   -0.4742 H       1  UNL1        0.0372
     41 H          -2.8089    5.5433    1.1275 H       1  UNL1        0.0372
     42 H          -4.3705    2.7092    0.0648 H       1  UNL1        0.0810
     43 H           2.1756    3.7101   -0.0042 H       1  UNL1        0.0624
     44 H           2.1001    1.2711   -0.0078 H       1  UNL1        0.0618
     45 H           0.0021   -0.0041    0.0020 H       1  UNL1        0.0638
     46 H           1.7222    5.7499    0.8061 H       1  UNL1        0.0586
     47 H          -3.6268    7.3950   -0.9650 H       1  UNL1        0.0778
     48 H          -2.7652    8.9437   -1.1300 H       1  UNL1        0.0778
     49 H          -2.4617    7.6284   -2.2902 H       1  UNL1        0.0778
     50 N          -1.6275    7.3692   -0.3556 N.4     1  UNL1        0.2395
     51 H          -1.8989    7.5598    0.6161 H       1  UNL1        0.2037
@<TRIPOS>UNITY_ATOM_ATTR
50 1
charge 1
@<TRIPOS>BOND
     1     1     2    1
     2     1    29    1
     3     1    30    1
     4     1    31    1
     5     2     3    1
     6     2    32    1
     7     2    33    1
     8     3     4    1
     9     3     5    1
    10     3     7    1
    11     5     6    1
    12     5    34    1
    13     5    35    1
    14     6    36    1
    15     7     8   am
    16     7    37    1
    17     8     9    2
    18     8    10    1
    19    10    11    1
    20    10    27    1
    21    10    12    1
    22    12    38    1
    23    12    39    1
    24    12    50    1
    25    13    14    1
    26    13    26    1
    27    13    15    1
    28    13    50    1
    29    15    16    1
    30    15    40    1
    31    15    41    1
    32    16    21   ar
    33    16    17   ar
    34    17    18   ar
    35    17    42    1
    36    18    19    1
    37    18    20   ar
    38    20    25   ar
    39    20    21   ar
    40    21    22   ar
    41    22    23   ar
    42    22    26    1
    43    23    24   ar
    44    23    43    1
    45    24    25   ar
    46    24    44    1
    47    25    45    1
    48    26    27    2
    49    27    46    1
    50    28    47    1
    51    28    48    1
    52    28    49    1
    53    28    50    1
    54    50    51    1
