@<TRIPOS>MOLECULE
ZINC03830273
 34 34 0 0 0
SMALL
GASTEIGER

@<TRIPOS>ATOM
      1 C           3.1202    2.3970    1.1868 C.ar    1  UNL1       -0.0501
      2 C           3.7408    2.6947   -0.0122 C.ar    1  UNL1       -0.0160
      3 C           3.1059    2.4134   -1.2122 C.ar    1  UNL1        0.1620
      4 C           1.8439    1.8309   -1.2087 C.ar    1  UNL1        0.2009
      5 C           1.2237    1.5328   -0.0014 C.ar    1  UNL1        0.1665
      6 C           1.8632    1.8226    1.1946 C.ar    1  UNL1        0.0133
      7 C           1.1887    1.5059    2.5045 C.3     1  UNL1        0.0423
      8 N           1.3507    0.0774    2.8059 N.3     1  UNL1       -0.2360
      9 N           0.7496   -0.2445    3.9896 N.am    1  UNL1       -0.2459
     10 C           0.7881   -1.5135    4.4418 C.2     1  UNL1        0.2768
     11 O           1.3564   -2.3698    3.7978 O.2     1  UNL1       -0.2682
     12 CA          0.1249   -1.8686    5.7476 C.3     1  UNL1        0.0778
     13 HA          0.3011   -1.0738    6.4725 H       1  UNL1        0.0972
     14 C          -1.3802   -2.0332    5.5271 C.3     1  UNL1        0.0954
     15 O          -2.0242   -2.2547    6.7833 O.3     1  UNL1       -0.3889
     16 O          -0.0110    0.9628    0.0073 O.3     1  UNL1       -0.5030
     17 O           1.2171    1.5536   -2.3844 O.3     1  UNL1       -0.5009
     18 O           3.7172    2.7066   -2.3911 O.3     1  UNL1       -0.5032
     19 H           3.6173    2.6177    2.1199 H       1  UNL1        0.0623
     20 H           4.7214    3.1473   -0.0141 H       1  UNL1        0.0655
     21 H           1.6419    2.0986    3.2992 H       1  UNL1        0.0491
     22 H           0.1274    1.7443    2.4337 H       1  UNL1        0.0491
     23 H           0.9960   -0.4935    2.0533 H       1  UNL1        0.1446
     24 H           0.2950    0.4404    4.5047 H       1  UNL1        0.1691
     25 H1         -1.7810   -1.1298    5.0676 H       1  UNL1        0.0619
     26 H2         -1.5602   -2.8850    4.8713 H       1  UNL1        0.0619
     27 H          -2.9824   -2.3682    6.7194 H       1  UNL1        0.2097
     28 H1          0.3042   -3.3543    7.1614 H       1  UNL1        0.2003
     29 H2          0.5355   -3.8806    5.6008 H       1  UNL1        0.2003
     30 H           0.0021   -0.0041    0.0020 H       1  UNL1        0.2923
     31 H           0.6660    2.2757   -2.7162 H       1  UNL1        0.2924
     32 H           3.5239    3.5935   -2.7245 H       1  UNL1        0.2923
     33 N           0.7105   -3.1212    6.2568 N.4     1  UNL1        0.2291
     34 H3          1.7242   -2.9999    6.3662 H       1  UNL1        0.2003
@<TRIPOS>UNITY_ATOM_ATTR
33 1
charge 1
@<TRIPOS>BOND
     1     1     6   ar
     2     1     2   ar
     3     1    19    1
     4     2     3   ar
     5     2    20    1
     6     3     4   ar
     7     3    18    1
     8     4     5   ar
     9     4    17    1
    10     5     6   ar
    11     5    16    1
    12     6     7    1
    13     7     8    1
    14     7    21    1
    15     7    22    1
    16     8     9    1
    17     8    23    1
    18     9    10   am
    19     9    24    1
    20    10    11    2
    21    10    12    1
    22    12    13    1
    23    12    14    1
    24    12    33    1
    25    14    15    1
    26    14    25    1
    27    14    26    1
    28    15    27    1
    29    16    30    1
    30    17    31    1
    31    18    32    1
    32    28    33    1
    33    29    33    1
    34    33    34    1
