@<TRIPOS>MOLECULE
ZINC00001587
 30 31 0 0 0
SMALL
GASTEIGER

@<TRIPOS>ATOM
      1 C           4.8825    2.5344   -0.0326 C.3     1  UNL1       -0.0037
      2 C           3.3756    2.5223   -0.0175 C.ar    1  UNL1        0.1350
      3 C           2.5763    1.4304   -0.0149 C.ar    1  UNL1        0.0125
      4 C           1.2599    1.9698    0.0006 C.ar    1  UNL1        0.1690
      5 N           1.4005    3.2721    0.0005 N.ar    1  UNL1       -0.0734
      6 O           2.5668    3.5907   -0.0044 O.2     1  UNL1       -0.3592
      7 C          -0.0144    1.2108    0.0087 C.2     1  UNL1        0.2792
      8 O           0.0021   -0.0041    0.0020 O.2     1  UNL1       -0.2671
      9 N          -1.1906    1.8687    0.0179 N.am    1  UNL1       -0.2453
     10 N          -2.3642    1.1697    0.0196 N.3     1  UNL1       -0.2360
     11 C          -3.5183    2.0786    0.0300 C.3     1  UNL1        0.0387
     12 C          -4.7920    1.2731    0.0317 C.ar    1  UNL1       -0.0320
     13 C          -5.3849    0.9151   -1.1646 C.ar    1  UNL1       -0.0573
     14 C          -6.5506    0.1721   -1.1631 C.ar    1  UNL1       -0.0615
     15 C          -7.1289   -0.2042    0.0347 C.ar    1  UNL1       -0.0617
     16 C          -6.5391    0.1588    1.2311 C.ar    1  UNL1       -0.0615
     17 C          -5.3705    0.8972    1.2296 C.ar    1  UNL1       -0.0573
     18 H           5.2354    2.5425   -1.0638 H       1  UNL1        0.0309
     19 H           5.2438    3.4247    0.4821 H       1  UNL1        0.0309
     20 H           5.2581    1.6448    0.4730 H       1  UNL1        0.0309
     21 H           2.8696    0.3910   -0.0227 H       1  UNL1        0.0676
     22 H          -1.2038    2.8386    0.0232 H       1  UNL1        0.1693
     23 H          -2.4020    0.5284    0.7977 H       1  UNL1        0.1446
     24 H          -3.4816    2.7022    0.9233 H       1  UNL1        0.0490
     25 H          -3.4900    2.7119   -0.8567 H       1  UNL1        0.0490
     26 H          -4.9353    1.2125   -2.1004 H       1  UNL1        0.0621
     27 H          -7.0117   -0.1111   -2.0978 H       1  UNL1        0.0618
     28 H          -8.0417   -0.7814    0.0359 H       1  UNL1        0.0618
     29 H          -6.9910   -0.1349    2.1670 H       1  UNL1        0.0618
     30 H          -4.9097    1.1808    2.1643 H       1  UNL1        0.0621
@<TRIPOS>BOND
     1     1     2    1
     2     1    18    1
     3     1    19    1
     4     1    20    1
     5     2     6   ar
     6     2     3   ar
     7     3     4   ar
     8     3    21    1
     9     4     5   ar
    10     4     7    1
    11     5     6   ar
    12     7     8    2
    13     7     9   am
    14     9    10    1
    15     9    22    1
    16    10    11    1
    17    10    23    1
    18    11    12    1
    19    11    24    1
    20    11    25    1
    21    12    17   ar
    22    12    13   ar
    23    13    14   ar
    24    13    26    1
    25    14    15   ar
    26    14    27    1
    27    15    16   ar
    28    15    28    1
    29    16    17   ar
    30    16    29    1
    31    17    30    1
