@<TRIPOS>MOLECULE
ZINC03831053
 55 58 0 0 0
SMALL
GASTEIGER

@<TRIPOS>ATOM
      1 C          -0.0642    3.4200    0.9781 C.3     1  UNL1       -0.0426
      2 C          -1.6079    1.5601    1.1212 C.3     1  UNL1       -0.0426
      3 C           0.1955    1.5151   -0.4939 C.3     1  UNL1        0.0465
      4 H          -0.3690    2.0672   -1.2453 H       1  UNL1        0.0939
      5 C           1.6691    1.8137   -0.6706 C.3     1  UNL1        0.0791
      6 H           1.8425    2.8362   -0.3349 H       1  UNL1        0.0423
      7 C           2.1124    1.7304   -2.1492 C.3     1  UNL1        0.0781
      8 H           1.3930    2.2599   -2.7739 H       1  UNL1        0.0609
      9 C           3.4764    2.4171   -2.2311 C.3     1  UNL1        0.0427
     10 H           3.3577    3.4776   -2.0091 H       1  UNL1        0.0425
     11 C           4.0383    2.2611   -3.6237 C.2     1  UNL1       -0.0364
     12 C           3.2854    1.8343   -4.6303 C.2     1  UNL1       -0.0942
     13 C           5.4646    2.6050   -3.8185 C.ar    1  UNL1       -0.0074
     14 C           5.9417    3.0619   -5.0383 C.ar    1  UNL1       -0.0534
     15 C           7.2788    3.3916   -5.1718 C.ar    1  UNL1       -0.0577
     16 C           8.1430    3.2710   -4.0989 C.ar    1  UNL1       -0.0194
     17 C           7.6878    2.8078   -2.8726 C.ar    1  UNL1        0.1282
     18 C           6.3416    2.4604   -2.7225 C.ar    1  UNL1        0.0708
     19 C           5.8298    1.9287   -1.4490 C.2     1  UNL1        0.1972
     20 O           6.6088    1.5926   -0.5748 O.2     1  UNL1       -0.2867
     21 C           4.4257    1.8057   -1.2348 C.2     1  UNL1        0.0503
     22 C           3.9987    1.1376   -0.1582 C.2     1  UNL1        0.1412
     23 C           2.5507    0.8950    0.1715 C.3     1  UNL1        0.1960
     24 C           2.2352   -0.5407   -0.2061 C.2     1  UNL1        0.2109
     25 O           3.1211   -1.3670   -0.2806 O.2     1  UNL1       -0.2882
     26 C           0.8487   -0.9129   -0.4790 C.2     1  UNL1        0.1248
     27 C          -0.1128    0.0545   -0.6314 C.2     1  UNL1        0.1579
     28 O          -1.3700   -0.3193   -0.9122 O.2     1  UNL1       -0.5050
     29 C           0.4812   -2.3335   -0.5907 C.2     1  UNL1        0.2485
     30 O           0.3163   -2.9998    0.4135 O.2     1  UNL1       -0.2702
     31 N           0.3272   -2.8962   -1.8057 N.am    1  UNL1       -0.3252
     32 O           2.3199    1.1018    1.5664 O.3     1  UNL1       -0.3730
     33 O           4.9272    0.6491    0.6885 O.2     1  UNL1       -0.5072
     34 O           8.5433    2.6937   -1.8257 O.3     1  UNL1       -0.5060
     35 O           2.2251    0.3732   -2.5821 O.3     1  UNL1       -0.3902
     36 H          -0.5719    3.9217    0.1543 H       1  UNL1        0.0778
     37 H          -0.4979    3.7448    1.9239 H       1  UNL1        0.0778
     38 H           0.9960    3.6720    0.9589 H       1  UNL1        0.0778
     39 H          -1.6599    0.4737    1.1939 H       1  UNL1        0.0778
     40 H          -1.9321    2.0032    2.0628 H       1  UNL1        0.0778
     41 H          -2.2581    1.9019    0.3159 H       1  UNL1        0.0778
     42 H           2.2274    1.6747   -4.4834 H       1  UNL1        0.0538
     43 H           3.7308    1.6465   -5.5961 H       1  UNL1        0.0538
     44 H           5.2722    3.1602   -5.8801 H       1  UNL1        0.0624
     45 H           7.6508    3.7457   -6.1219 H       1  UNL1        0.0619
     46 H           9.1824    3.5396   -4.2167 H       1  UNL1        0.0654
     47 H          -1.4158   -1.3165   -0.9718 H       1  UNL1        0.2919
     48 H           0.5283   -2.3858   -2.6056 H       1  UNL1        0.1453
     49 H           0.0153   -3.8117   -1.8801 H       1  UNL1        0.1453
     50 H           2.7952    0.4848    2.1395 H       1  UNL1        0.2113
     51 H           4.4736    0.1759    1.4437 H       1  UNL1        0.2918
     52 H           8.6040    3.4889   -1.2788 H       1  UNL1        0.2922
     53 H           1.3777   -0.0855   -2.6628 H       1  UNL1        0.2098
     54 N          -0.2076    1.9537    0.8589 N.4     1  UNL1        0.2389
     55 H           0.4012    1.5017    1.5512 H       1  UNL1        0.2035
@<TRIPOS>UNITY_ATOM_ATTR
54 1
charge 1
@<TRIPOS>BOND
     1     1    36    1
     2     1    37    1
     3     1    38    1
     4     1    54    1
     5     2    39    1
     6     2    40    1
     7     2    41    1
     8     2    54    1
     9     3     4    1
    10     3    27    1
    11     3     5    1
    12     3    54    1
    13     5     6    1
    14     5    23    1
    15     5     7    1
    16     7     8    1
    17     7     9    1
    18     7    35    1
    19     9    10    1
    20     9    21    1
    21     9    11    1
    22    11    12    2
    23    11    13    1
    24    12    42    1
    25    12    43    1
    26    13    18   ar
    27    13    14   ar
    28    14    15   ar
    29    14    44    1
    30    15    16   ar
    31    15    45    1
    32    16    17   ar
    33    16    46    1
    34    17    18   ar
    35    17    34    1
    36    18    19    1
    37    19    20    2
    38    19    21    1
    39    21    22    2
    40    22    23    1
    41    22    33    1
    42    23    24    1
    43    23    32    1
    44    24    25    2
    45    24    26    1
    46    26    27    2
    47    26    29    1
    48    27    28    1
    49    28    47    1
    50    29    30    2
    51    29    31   am
    52    31    48    1
    53    31    49    1
    54    32    50    1
    55    33    51    1
    56    34    52    1
    57    35    53    1
    58    54    55    1
