@<TRIPOS>MOLECULE
ZINC11592699
 50 53 0 0 0
SMALL
GASTEIGER

@<TRIPOS>ATOM
      1 C          -2.6194    2.3684    2.4868 C.3     1  UNL1       -0.0567
      2 C          -2.1072    1.3207    1.4574 C.3     1  UNL1       -0.0004
      3 C          -0.6343    1.5854    1.3069 C.3     1  UNL1       -0.0445
      4 C          -0.0126    1.0799    0.0080 C.3     1  UNL1       -0.0483
      5 C          -0.7913    1.6365   -1.1776 C.3     1  UNL1       -0.0253
      6 H          -0.8083    2.7353   -1.0905 H       1  UNL1        0.0315
      7 C          -2.2375    1.1556   -1.1035 C.3     1  UNL1       -0.0334
      8 H          -2.7779    1.6499   -1.9301 H       1  UNL1        0.0307
      9 C          -2.9287    1.5420    0.1847 C.3     1  UNL1       -0.0298
     10 H          -3.2425    2.6085    0.1292 H       1  UNL1        0.0310
     11 C          -4.1781    0.6427    0.3782 C.3     1  UNL1       -0.0468
     12 C          -3.6779   -0.5577    1.2030 C.3     1  UNL1       -0.0235
     13 C          -2.4808   -0.0453    2.0295 C.3     1  UNL1        0.0689
     14 C          -1.3385   -1.0552    1.9726 C.3     1  UNL1       -0.0356
     15 O          -2.8969    0.1111    3.3985 O.3     1  UNL1       -0.3883
     16 C          -2.2669   -0.3474   -1.3794 C.3     1  UNL1       -0.0459
     17 C          -2.0410   -0.5399   -2.8825 C.3     1  UNL1       -0.0302
     18 C          -0.9799    0.4028   -3.3933 C.2     1  UNL1       -0.0560
     19 C          -0.7396    0.3540   -4.7161 C.2     1  UNL1       -0.0149
     20 C           0.1326    1.3707   -5.3404 C.2     1  UNL1        0.1787
     21 O           0.5341    1.2360   -6.4934 O.2     1  UNL1       -0.2879
     22 C           0.5015    2.5549   -4.5372 C.2     1  UNL1       -0.0180
     23 C           0.3261    2.5332   -3.2128 C.2     1  UNL1       -0.0702
     24 C          -0.1821    1.3042   -2.5195 C.3     1  UNL1        0.0108
     25 C           1.0902    0.4974   -2.2456 C.3     1  UNL1       -0.0521
     26 H          -3.6816    2.2075    2.6711 H       1  UNL1        0.0236
     27 H          -2.0681    2.2598    3.4208 H       1  UNL1        0.0236
     28 H          -2.4675    3.3722    2.0899 H       1  UNL1        0.0236
     29 H          -0.0816    1.1898    2.1582 H       1  UNL1        0.0272
     30 H          -0.4886    2.6812    1.3343 H       1  UNL1        0.0272
     31 H           0.0021   -0.0041    0.0020 H       1  UNL1        0.0269
     32 H           1.0190    1.4642    0.0002 H       1  UNL1        0.0269
     33 H          -4.9562    1.1831    0.9282 H       1  UNL1        0.0269
     34 H          -4.5808    0.3195   -0.5821 H       1  UNL1        0.0269
     35 H          -3.3655   -1.3750    0.5561 H       1  UNL1        0.0293
     36 H          -4.4687   -0.9049    1.8722 H       1  UNL1        0.0293
     37 H          -0.4918   -0.6789    2.5467 H       1  UNL1        0.0257
     38 H          -1.6707   -2.0037    2.3945 H       1  UNL1        0.0257
     39 H          -1.0368   -1.2045    0.9359 H       1  UNL1        0.0257
     40 H          -3.1502   -0.7166    3.8296 H       1  UNL1        0.2102
     41 H          -1.4823   -0.8577   -0.8253 H       1  UNL1        0.0271
     42 H          -3.2374   -0.7676   -1.1185 H       1  UNL1        0.0271
     43 H          -1.7234   -1.5635   -3.0719 H       1  UNL1        0.0310
     44 H          -2.9708   -0.3422   -3.4126 H       1  UNL1        0.0310
     45 H          -1.2404   -0.3956   -5.3379 H       1  UNL1        0.0655
     46 H           0.9218    3.4444   -5.0223 H       1  UNL1        0.0653
     47 H           0.5515    3.4263   -2.6212 H       1  UNL1        0.0582
     48 H           0.8337   -0.4125   -1.7030 H       1  UNL1        0.0241
     49 H           1.5646    0.2350   -3.1912 H       1  UNL1        0.0241
     50 H           1.7780    1.0953   -1.6477 H       1  UNL1        0.0241
@<TRIPOS>BOND
     1     1     2    1
     2     1    26    1
     3     1    27    1
     4     1    28    1
     5     2     9    1
     6     2    13    1
     7     2     3    1
     8     3     4    1
     9     3    29    1
    10     3    30    1
    11     4     5    1
    12     4    31    1
    13     4    32    1
    14     5     6    1
    15     5    24    1
    16     5     7    1
    17     7     8    1
    18     7     9    1
    19     7    16    1
    20     9    10    1
    21     9    11    1
    22    11    12    1
    23    11    33    1
    24    11    34    1
    25    12    13    1
    26    12    35    1
    27    12    36    1
    28    13    14    1
    29    13    15    1
    30    14    37    1
    31    14    38    1
    32    14    39    1
    33    15    40    1
    34    16    17    1
    35    16    41    1
    36    16    42    1
    37    17    18    1
    38    17    43    1
    39    17    44    1
    40    18    24    1
    41    18    19    2
    42    19    20    1
    43    19    45    1
    44    20    21    2
    45    20    22    1
    46    22    23    2
    47    22    46    1
    48    23    24    1
    49    23    47    1
    50    24    25    1
    51    25    48    1
    52    25    49    1
    53    25    50    1
