@<TRIPOS>MOLECULE
ZINC01530733
 56 57 0 0 0
SMALL
GASTEIGER

@<TRIPOS>ATOM
      1 C           0.0022   -0.0040    0.0037 C.3     1  UNL1       -0.0254
      2 C          -0.0183    1.5029    0.0114 C.2     1  UNL1        0.0307
      3 C          -1.1960    2.1508    0.0262 C.3     1  UNL1        0.1053
      4 C          -1.2643    3.6511    0.0528 C.3     1  UNL1        0.0360
      5 H          -2.0315    3.9860   -0.6454 H       1  UNL1        0.0412
      6 C           0.0567    4.2499   -0.3391 C.2     1  UNL1        0.0659
      7 C           1.1850    3.5166   -0.3494 C.2     1  UNL1        0.0487
      8 N           1.1621    2.1947    0.0032 N.2     1  UNL1       -0.2600
      9 C           2.4902    4.1599   -0.7412 C.3     1  UNL1       -0.0218
     10 C           0.1152    5.6130   -0.7111 C.2     1  UNL1        0.3377
     11 O           1.1782    6.1114   -1.0309 O.2     1  UNL1       -0.2452
     12 O          -1.0080    6.3611   -0.7115 O.3     1  UNL1       -0.4586
     13 C          -0.8754    7.7304   -1.0981 C.3     1  UNL1        0.0978
     14 C          -2.1753    8.2041   -1.7515 C.3     1  UNL1       -0.0280
     15 C          -0.5855    8.5837    0.1382 C.3     1  UNL1       -0.0280
     16 C          -1.6241    4.1094    1.4426 C.ar    1  UNL1       -0.0321
     17 C          -0.7936    3.8089    2.5062 C.ar    1  UNL1       -0.0575
     18 C          -1.1212    4.2334    3.7802 C.ar    1  UNL1       -0.0551
     19 C          -2.2846    4.9494    3.9924 C.ar    1  UNL1        0.0156
     20 C          -3.1176    5.2454    2.9298 C.ar    1  UNL1        0.2734
     21 C          -2.7872    4.8253    1.6547 C.ar    1  UNL1        0.0194
     22 N          -4.3634    6.0115    3.1571 N.pl3   1  UNL1        0.0796
     23 O          -5.0976    6.2719    2.2208 O.2     1  UNL1        0.0414
     24 O          -4.6544    6.3817    4.2805 O.co2   1  UNL1       -0.5760
     25 C          -2.3966    1.4038    0.0204 C.2     1  UNL1        0.3167
     26 O          -2.3565    0.1877    0.0021 O.2     1  UNL1       -0.2501
     27 O          -3.5869    2.0395    0.0351 O.3     1  UNL1       -0.4618
     28 C          -4.7591    1.2221    0.0282 C.3     1  UNL1        0.1157
     29 C          -6.0025    2.1134    0.0469 C.3     1  UNL1        0.0814
     30 O          -6.0632    2.8718   -1.1627 O.3     1  UNL1       -0.3796
     31 C          -7.1936    3.7420   -1.2471 C.3     1  UNL1        0.0366
     32 H           1.0346   -0.3533   -0.0082 H       1  UNL1        0.0290
     33 H          -0.4980   -0.3786    0.8967 H       1  UNL1        0.0290
     34 H          -0.5154   -0.3698   -0.8831 H       1  UNL1        0.0290
     35 H          -1.1850    1.8344   -0.9224 H       1  UNL1        0.0484
     36 H           3.2907    3.4223   -0.6833 H       1  UNL1        0.0293
     37 H           2.4174    4.5376   -1.7611 H       1  UNL1        0.0293
     38 H           2.7067    4.9850   -0.0627 H       1  UNL1        0.0293
     39 H          -0.0546    7.8295   -1.8086 H       1  UNL1        0.0728
     40 H          -2.9960    8.1050   -1.0411 H       1  UNL1        0.0265
     41 H          -2.0741    9.2485   -2.0464 H       1  UNL1        0.0265
     42 H          -2.3818    7.5961   -2.6323 H       1  UNL1        0.0265
     43 H          -1.4062    8.4848    0.8486 H       1  UNL1        0.0265
     44 H           0.3406    8.2463    0.6037 H       1  UNL1        0.0265
     45 H          -0.4844    9.6282   -0.1568 H       1  UNL1        0.0265
     46 H           0.1130    3.2457    2.3412 H       1  UNL1        0.0621
     47 H          -0.4705    4.0018    4.6105 H       1  UNL1        0.0620
     48 H          -2.5428    5.2773    4.9885 H       1  UNL1        0.0685
     49 H          -3.4382    5.0561    0.8245 H       1  UNL1        0.0688
     50 H          -4.7672    0.6061   -0.8711 H       1  UNL1        0.0721
     51 H          -4.7593    0.5796    0.9087 H       1  UNL1        0.0721
     52 H          -6.8939    1.4918    0.1312 H       1  UNL1        0.0593
     53 H          -5.9506    2.7915    0.8987 H       1  UNL1        0.0593
     54 H          -8.1097    3.1542   -1.1896 H       1  UNL1        0.0524
     55 H          -7.1665    4.4539   -0.4221 H       1  UNL1        0.0524
     56 H          -7.1669    4.2816   -2.1937 H       1  UNL1        0.0524
@<TRIPOS>UNITY_ATOM_ATTR
22 1
charge 1
24 1
charge -1
@<TRIPOS>BOND
     1     1     2    1
     2     1    32    1
     3     1    33    1
     4     1    34    1
     5     2     8    2
     6     2     3    1
     7     3     4    1
     8     3    25    1
     9     3    35    1
    10     4     5    1
    11     4     6    1
    12     4    16    1
    13     6    10    1
    14     6     7    2
    15     7     9    1
    16     7     8    1
    17     9    36    1
    18     9    37    1
    19     9    38    1
    20    10    11    2
    21    10    12    1
    22    12    13    1
    23    13    14    1
    24    13    15    1
    25    13    39    1
    26    14    40    1
    27    14    41    1
    28    14    42    1
    29    15    43    1
    30    15    44    1
    31    15    45    1
    32    16    21   ar
    33    16    17   ar
    34    17    18   ar
    35    17    46    1
    36    18    19   ar
    37    18    47    1
    38    19    20   ar
    39    19    48    1
    40    20    21   ar
    41    20    22    1
    42    21    49    1
    43    22    23    2
    44    22    24    1
    45    25    26    2
    46    25    27    1
    47    27    28    1
    48    28    29    1
    49    28    50    1
    50    28    51    1
    51    29    30    1
    52    29    52    1
    53    29    53    1
    54    30    31    1
    55    31    54    1
    56    31    55    1
    57    31    56    1
