@<TRIPOS>MOLECULE
ZINC04198849
 51 55 0 0 0
SMALL
GASTEIGER

@<TRIPOS>ATOM
      1 C           2.0133    4.9347   -4.9129 C.3     1  UNL1       -0.0569
      2 C           0.5984    4.6486   -5.4064 C.3     1  UNL1       -0.0030
      3 C          -0.3901    5.6716   -4.9062 C.3     1  UNL1       -0.0447
      4 C          -0.8942    5.3224   -3.4989 C.3     1  UNL1       -0.0488
      5 C          -0.0365    4.2765   -2.8110 C.3     1  UNL1       -0.0297
      6 H           0.9792    4.6592   -2.7301 H       1  UNL1        0.0310
      7 C          -0.0036    2.9761   -3.6069 C.3     1  UNL1       -0.0341
      8 H          -0.9657    2.4554   -3.4228 H       1  UNL1        0.0306
      9 C           0.1138    3.2206   -5.0766 C.3     1  UNL1       -0.0301
     10 H          -0.8859    3.0763   -5.5388 H       1  UNL1        0.0310
     11 C           1.1116    2.3597   -5.8649 C.3     1  UNL1       -0.0470
     12 C           1.2852    3.1489   -7.1923 C.3     1  UNL1       -0.0261
     13 C           0.6763    4.5526   -6.9487 C.3     1  UNL1        0.0609
     14 H          -0.3192    4.6221   -7.3700 H       1  UNL1        0.0599
     15 O           1.5341    5.5716   -7.4524 O.3     1  UNL1       -0.3912
     16 C           1.0987    2.0945   -3.0217 C.3     1  UNL1       -0.0469
     17 C           0.6154    1.6166   -1.6539 C.3     1  UNL1       -0.0200
     18 C           0.1604    2.7666   -0.7612 C.3     1  UNL1        0.1091
     19 C          -0.4424    4.0199   -1.3778 C.3     1  UNL1        0.0045
     20 C          -1.9547    4.0247   -1.1914 C.3     1  UNL1       -0.0220
     21 C          -2.2854    3.9829    0.2814 C.3     1  UNL1        0.1074
     22 C          -1.5891    3.1857    1.1105 C.2     1  UNL1        0.1814
     23 C          -0.4655    2.3320    0.5839 C.3     1  UNL1        0.1478
     24 H          -0.7512    1.3755    0.5250 H       1  UNL1        0.0706
     25 O           0.8332    2.9183    0.4967 O.3     1  UNL1       -0.3562
     26 O          -1.8995    3.1505    2.4244 O.2     1  UNL1       -0.2932
     27 C          -3.3485    4.7939    0.8005 C.1     1  UNL1        0.0736
     28 N          -4.1905    5.4363    1.2115 N.1     1  UNL1       -0.1958
     29 C           0.1131    5.1999   -0.5738 C.3     1  UNL1       -0.0565
     30 H           2.7242    4.3324   -5.4787 H       1  UNL1        0.0236
     31 H           2.2402    5.9916   -5.0529 H       1  UNL1        0.0236
     32 H           2.0866    4.6844   -3.8546 H       1  UNL1        0.0236
     33 H           0.0848    6.6616   -4.8872 H       1  UNL1        0.0271
     34 H          -1.2431    5.7254   -5.5956 H       1  UNL1        0.0271
     35 H          -0.9217    6.2376   -2.8967 H       1  UNL1        0.0268
     36 H          -1.9245    4.9499   -3.5768 H       1  UNL1        0.0268
     37 H           2.0582    2.2617   -5.3412 H       1  UNL1        0.0269
     38 H           0.6862    1.3736   -6.0651 H       1  UNL1        0.0269
     39 H           0.7535    2.6446   -7.9982 H       1  UNL1        0.0290
     40 H           2.3429    3.2371   -7.4388 H       1  UNL1        0.0290
     41 H           1.6269    5.5674   -8.4149 H       1  UNL1        0.2098
     42 H           2.0162    2.6674   -2.9061 H       1  UNL1        0.0269
     43 H           1.2714    1.2351   -3.6674 H       1  UNL1        0.0269
     44 H           1.4280    1.0837   -1.1595 H       1  UNL1        0.0294
     45 H          -0.2196    0.9293   -1.7974 H       1  UNL1        0.0294
     46 H          -2.3796    4.9320   -1.6278 H       1  UNL1        0.0288
     47 H          -2.3914    3.1544   -1.6865 H       1  UNL1        0.0288
     48 H          -1.7464    4.6734    0.7638 H       1  UNL1        0.0533
     49 H           1.2006    5.2101   -0.6478 H       1  UNL1        0.0236
     50 H          -0.2870    6.1319   -0.9729 H       1  UNL1        0.0236
     51 H          -0.1790    5.0971    0.4713 H       1  UNL1        0.0236
@<TRIPOS>BOND
     1     1     2    1
     2     1    30    1
     3     1    31    1
     4     1    32    1
     5     2     9    1
     6     2    13    1
     7     2     3    1
     8     3     4    1
     9     3    33    1
    10     3    34    1
    11     4     5    1
    12     4    35    1
    13     4    36    1
    14     5     6    1
    15     5    19    1
    16     5     7    1
    17     7     8    1
    18     7     9    1
    19     7    16    1
    20     9    10    1
    21     9    11    1
    22    11    12    1
    23    11    37    1
    24    11    38    1
    25    12    13    1
    26    12    39    1
    27    12    40    1
    28    13    14    1
    29    13    15    1
    30    15    41    1
    31    16    17    1
    32    16    42    1
    33    16    43    1
    34    17    18    1
    35    17    44    1
    36    17    45    1
    37    18    23    1
    38    18    25    1
    39    18    19    1
    40    19    20    1
    41    19    29    1
    42    20    21    1
    43    20    46    1
    44    20    47    1
    45    21    27    1
    46    21    48    1
    47    21    22    1
    48    22    23    1
    49    22    26    2
    50    23    25    1
    51    23    24    1
    52    27    28    3
    53    29    49    1
    54    29    50    1
    55    29    51    1
