@<TRIPOS>MOLECULE
ZINC03830375
 56 57 0 0 0
SMALL
GASTEIGER

@<TRIPOS>ATOM
      1 C          -7.0448   -3.2246   -4.8627 C.3     1  UNL1       -0.0245
      2 C          -5.5327   -3.3779   -4.6864 C.3     1  UNL1       -0.0347
      3 C          -5.0571   -1.1175   -5.4125 C.3     1  UNL1       -0.0347
      4 C          -4.0788   -1.5019   -6.5243 C.3     1  UNL1       -0.0245
      5 C          -5.5750   -1.5590   -3.0888 C.3     1  UNL1       -0.0079
      6 C          -5.2304   -2.4696   -1.9086 C.3     1  UNL1        0.0876
      7 O          -3.8234   -2.4206   -1.6641 O.3     1  UNL1       -0.3712
      8 C          -3.3937   -3.2407   -0.5756 C.3     1  UNL1        0.0821
      9 C          -1.8786   -3.1106   -0.4062 C.3     1  UNL1        0.1157
     10 O          -1.5502   -1.7511   -0.0159 O.3     1  UNL1       -0.4617
     11 C          -0.2519   -1.4687    0.1747 C.2     1  UNL1        0.3178
     12 O           0.5825   -2.3289    0.0206 O.2     1  UNL1       -0.2498
     13 C           0.1650   -0.0786    0.5809 C.3     1  UNL1        0.0926
     14 C          -0.2106    0.9275   -0.5210 C.3     1  UNL1       -0.0332
     15 C           1.1076    1.5716   -0.9977 C.3     1  UNL1       -0.0517
     16 C           2.1941    0.5313   -0.6282 C.3     1  UNL1       -0.0517
     17 C           1.6985   -0.0108    0.7355 C.3     1  UNL1       -0.0332
     18 C          -0.5018    0.3017    1.8777 C.ar    1  UNL1       -0.0306
     19 C          -1.2586   -0.6290    2.5647 C.ar    1  UNL1       -0.0575
     20 C          -1.8664   -0.2816    3.7567 C.ar    1  UNL1       -0.0615
     21 C          -1.7255    0.9994    4.2566 C.ar    1  UNL1       -0.0617
     22 C          -0.9733    1.9318    3.5668 C.ar    1  UNL1       -0.0615
     23 C          -0.3613    1.5828    2.3775 C.ar    1  UNL1       -0.0575
     24 H          -7.4917   -2.9189   -3.9168 H       1  UNL1        0.0281
     25 H          -7.2473   -2.4686   -5.6214 H       1  UNL1        0.0281
     26 H          -7.4725   -4.1771   -5.1757 H       1  UNL1        0.0281
     27 H          -5.0903   -3.7173   -5.6230 H       1  UNL1        0.0812
     28 H          -5.3304   -4.1085   -3.9032 H       1  UNL1        0.0812
     29 H          -6.0741   -1.1253   -5.8046 H       1  UNL1        0.0812
     30 H          -4.8166   -0.1196   -5.0460 H       1  UNL1        0.0812
     31 H          -3.0677   -1.5455   -6.1196 H       1  UNL1        0.0281
     32 H          -4.3515   -2.4775   -6.9269 H       1  UNL1        0.0281
     33 H          -4.1205   -0.7566   -7.3186 H       1  UNL1        0.0281
     34 H          -6.6567   -1.5269   -3.2193 H       1  UNL1        0.0837
     35 H          -5.2028   -0.5535   -2.8927 H       1  UNL1        0.0837
     36 H          -5.5232   -3.4933   -2.1420 H       1  UNL1        0.0613
     37 H          -5.7654   -2.1321   -1.0210 H       1  UNL1        0.0613
     38 H          -3.6483   -4.2803   -0.7813 H       1  UNL1        0.0594
     39 H          -3.8906   -2.9192    0.3397 H       1  UNL1        0.0594
     40 H          -1.3859   -3.3470   -1.3493 H       1  UNL1        0.0721
     41 H          -1.5386   -3.8021    0.3647 H       1  UNL1        0.0721
     42 H          -0.6945    0.4104   -1.3496 H       1  UNL1        0.0279
     43 H          -0.8752    1.6917   -0.1181 H       1  UNL1        0.0279
     44 H           1.2847    2.5108   -0.4734 H       1  UNL1        0.0266
     45 H           1.0853    1.7336   -2.0753 H       1  UNL1        0.0266
     46 H           3.1675    1.0102   -0.5228 H       1  UNL1        0.0266
     47 H           2.2331   -0.2664   -1.3699 H       1  UNL1        0.0266
     48 H           1.9710    0.6727    1.5396 H       1  UNL1        0.0279
     49 H           2.1070   -1.0034    0.9249 H       1  UNL1        0.0279
     50 H          -1.3721   -1.6287    2.1720 H       1  UNL1        0.0621
     51 H          -2.4543   -1.0099    4.2954 H       1  UNL1        0.0618
     52 H          -2.2034    1.2719    5.1860 H       1  UNL1        0.0618
     53 H          -0.8636    2.9327    3.9572 H       1  UNL1        0.0618
     54 H           0.2263    2.3113    1.8385 H       1  UNL1        0.0621
     55 N          -4.9219   -2.0871   -4.3050 N.4     1  UNL1        0.2365
     56 H          -3.9245   -2.2345   -4.1108 H       1  UNL1        0.2034
@<TRIPOS>UNITY_ATOM_ATTR
55 1
charge 1
@<TRIPOS>BOND
     1     1     2    1
     2     1    24    1
     3     1    25    1
     4     1    26    1
     5     2    27    1
     6     2    28    1
     7     2    55    1
     8     3     4    1
     9     3    29    1
    10     3    30    1
    11     3    55    1
    12     4    31    1
    13     4    32    1
    14     4    33    1
    15     5     6    1
    16     5    34    1
    17     5    35    1
    18     5    55    1
    19     6     7    1
    20     6    36    1
    21     6    37    1
    22     7     8    1
    23     8     9    1
    24     8    38    1
    25     8    39    1
    26     9    10    1
    27     9    40    1
    28     9    41    1
    29    10    11    1
    30    11    12    2
    31    11    13    1
    32    13    17    1
    33    13    14    1
    34    13    18    1
    35    14    15    1
    36    14    42    1
    37    14    43    1
    38    15    16    1
    39    15    44    1
    40    15    45    1
    41    16    17    1
    42    16    46    1
    43    16    47    1
    44    17    48    1
    45    17    49    1
    46    18    23   ar
    47    18    19   ar
    48    19    20   ar
    49    19    50    1
    50    20    21   ar
    51    20    51    1
    52    21    22   ar
    53    21    52    1
    54    22    23   ar
    55    22    53    1
    56    23    54    1
    57    55    56    1
