@<TRIPOS>MOLECULE
ZINC03831091
 70 73 0 0 0
SMALL
GASTEIGER

@<TRIPOS>ATOM
      1 C           2.6818    3.0577   -4.0828 C.3     1  UNL1       -0.0552
      2 C           3.3560    2.9670   -2.7123 C.3     1  UNL1        0.0421
      3 C           2.4931    3.6489   -1.6820 C.2     1  UNL1        0.3078
      4 O           1.4463    4.1553   -2.0101 O.2     1  UNL1       -0.2508
      5 O           2.8874    3.6935   -0.3997 O.3     1  UNL1       -0.4497
      6 C           2.0707    4.4726    0.5146 C.3     1  UNL1        0.1796
      7 C           2.6388    4.3658    1.9543 C.3     1  UNL1       -0.0048
      8 C           2.7872    5.8204    2.4838 C.3     1  UNL1       -0.0453
      9 C           1.8831    6.6150    1.5365 C.3     1  UNL1       -0.0281
     10 H           0.8305    6.3712    1.8050 H       1  UNL1        0.0310
     11 C           2.2009    5.9674    0.1734 C.3     1  UNL1        0.0204
     12 C           1.2450    6.5238   -0.8461 C.3     1  UNL1       -0.0168
     13 C           1.4277    8.0441   -0.9854 C.3     1  UNL1        0.0600
     14 H           0.4289    8.4984   -1.0373 H       1  UNL1        0.0596
     15 C           2.2374    8.6807    0.1227 C.3     1  UNL1        0.0007
     16 H           3.3154    8.5711   -0.1223 H       1  UNL1        0.0340
     17 C           1.9988    8.1086    1.5151 C.3     1  UNL1       -0.0308
     18 H           1.0351    8.4794    1.9100 H       1  UNL1        0.0308
     19 C           3.0780    8.6142    2.4743 C.3     1  UNL1       -0.0432
     20 C           3.0388   10.1394    2.5920 C.3     1  UNL1       -0.0212
     21 H           3.9973   10.4635    3.0496 H       1  UNL1        0.0343
     22 C           2.9678   10.7574    1.2129 C.2     1  UNL1       -0.0531
     23 C           3.7627   11.7987    0.9697 C.2     1  UNL1       -0.0146
     24 C           3.7843   12.4436   -0.3509 C.2     1  UNL1        0.1787
     25 O           4.4821   13.4204   -0.5585 O.2     1  UNL1       -0.2879
     26 C           2.9489   11.8776   -1.4243 C.2     1  UNL1       -0.0180
     27 C           2.1591   10.8468   -1.1598 C.2     1  UNL1       -0.0701
     28 C           2.0399   10.1987    0.1759 C.3     1  UNL1        0.0133
     29 C           0.6046   10.4926    0.6065 C.3     1  UNL1       -0.0520
     30 C           1.9151   10.6074    3.5079 C.3     1  UNL1       -0.0587
     31 O           2.0712    8.2948   -2.2490 O.3     1  UNL1       -0.3914
     32 C           3.6567    6.1717   -0.2563 C.3     1  UNL1       -0.0551
     33 C           0.6448    4.0098    0.4730 C.2     1  UNL1        0.2142
     34 O          -0.2490    4.7854    0.7132 O.2     1  UNL1       -0.2895
     35 C           0.3275    2.5767    0.1313 C.3     1  UNL1        0.1542
     36 O          -1.0983    2.3474    0.2826 O.3     1  UNL1       -0.4570
     37 C          -1.5486    1.1117    0.0145 C.2     1  UNL1        0.3043
     38 O          -0.7770    0.2501   -0.3351 O.2     1  UNL1       -0.2512
     39 C          -3.0166    0.7988    0.1494 C.3     1  UNL1        0.0332
     40 H           1.7089    2.5680   -4.0422 H       1  UNL1        0.0235
     41 H           2.5505    4.1050   -4.3545 H       1  UNL1        0.0235
     42 H           3.3060    2.5645   -4.8280 H       1  UNL1        0.0235
     43 H           4.3290    3.4567   -2.7529 H       1  UNL1        0.0375
     44 H           3.4873    1.9196   -2.4406 H       1  UNL1        0.0375
     45 H           1.9466    3.8094    2.5854 H       1  UNL1        0.0308
     46 H           3.6101    3.8744    1.9364 H       1  UNL1        0.0308
     47 H           3.8192    6.1526    2.4375 H       1  UNL1        0.0270
     48 H           2.4142    5.8848    3.5095 H       1  UNL1        0.0270
     49 H           1.4200    6.0488   -1.8203 H       1  UNL1        0.0297
     50 H           0.2056    6.3281   -0.5562 H       1  UNL1        0.0297
     51 H           2.9125    8.1692    3.4574 H       1  UNL1        0.0274
     52 H           4.0559    8.3017    2.1037 H       1  UNL1        0.0274
     53 H           4.4005   12.1670    1.7629 H       1  UNL1        0.0656
     54 H           2.9825   12.3001   -2.4194 H       1  UNL1        0.0653
     55 H           1.5419   10.4626   -1.9596 H       1  UNL1        0.0582
     56 H           0.4402   10.1049    1.6118 H       1  UNL1        0.0241
     57 H           0.4368   11.5696    0.6005 H       1  UNL1        0.0241
     58 H          -0.0877   10.0132   -0.0855 H       1  UNL1        0.0241
     59 H           2.1305   10.3026    4.5320 H       1  UNL1        0.0235
     60 H           1.8366   11.6935    3.4609 H       1  UNL1        0.0235
     61 H           0.9743   10.1608    3.1861 H       1  UNL1        0.0235
     62 H           1.5707    7.9806   -3.0144 H       1  UNL1        0.2098
     63 H           3.9133    5.4451   -1.0272 H       1  UNL1        0.0237
     64 H           3.7808    7.1799   -0.6515 H       1  UNL1        0.0237
     65 H           4.3120    6.0355    0.6040 H       1  UNL1        0.0237
     66 H           0.8300    1.9684    0.7457 H       1  UNL1        0.0780
     67 H           0.6205    2.3754   -0.8991 H       1  UNL1        0.0780
     68 H          -3.5504    1.6927    0.4722 H       1  UNL1        0.0342
     69 H          -3.4079    0.4696   -0.8132 H       1  UNL1        0.0342
     70 H          -3.1532    0.0079    0.8869 H       1  UNL1        0.0342
@<TRIPOS>BOND
     1     1     2    1
     2     1    40    1
     3     1    41    1
     4     1    42    1
     5     2     3    1
     6     2    43    1
     7     2    44    1
     8     3     4    2
     9     3     5    1
    10     5     6    1
    11     6    11    1
    12     6     7    1
    13     6    33    1
    14     7     8    1
    15     7    45    1
    16     7    46    1
    17     8     9    1
    18     8    47    1
    19     8    48    1
    20     9    10    1
    21     9    17    1
    22     9    11    1
    23    11    12    1
    24    11    32    1
    25    12    13    1
    26    12    49    1
    27    12    50    1
    28    13    14    1
    29    13    15    1
    30    13    31    1
    31    15    16    1
    32    15    28    1
    33    15    17    1
    34    17    18    1
    35    17    19    1
    36    19    20    1
    37    19    51    1
    38    19    52    1
    39    20    21    1
    40    20    22    1
    41    20    30    1
    42    22    28    1
    43    22    23    2
    44    23    24    1
    45    23    53    1
    46    24    25    2
    47    24    26    1
    48    26    27    2
    49    26    54    1
    50    27    28    1
    51    27    55    1
    52    28    29    1
    53    29    56    1
    54    29    57    1
    55    29    58    1
    56    30    59    1
    57    30    60    1
    58    30    61    1
    59    31    62    1
    60    32    63    1
    61    32    64    1
    62    32    65    1
    63    33    34    2
    64    33    35    1
    65    35    36    1
    66    35    66    1
    67    35    67    1
    68    36    37    1
    69    37    38    2
    70    37    39    1
    71    39    68    1
    72    39    69    1
    73    39    70    1
