@<TRIPOS>MOLECULE
ZINC04658603
 10 9 0 0 0
SMALL
GASTEIGER

@<TRIPOS>ATOM
      1 C           2.7654    3.5301   -0.0054 C.3     1  UNL1        0.0141
      2 C           1.3972    2.8985    0.0043 C.2     1  UNL1        0.2323
      3 O           0.4065    3.5979    0.0175 O.2     1  UNL1       -0.2740
      4 N           1.2746    1.5563   -0.0018 N.am    1  UNL1       -0.1977
      5 O          -0.0110    0.9628    0.0073 O.3     1  UNL1       -0.2952
      6 H           3.5260    2.7494   -0.0168 H       1  UNL1        0.0323
      7 H           2.8715    4.1537   -0.8931 H       1  UNL1        0.0323
      8 H           2.8885    4.1441    0.8868 H       1  UNL1        0.0323
      9 H           2.0669    0.9969   -0.0123 H       1  UNL1        0.1822
     10 H           0.0021   -0.0041    0.0020 H       1  UNL1        0.2414
@<TRIPOS>BOND
     1     1     2    1
     2     1     6    1
     3     1     7    1
     4     1     8    1
     5     2     3    2
     6     2     4   am
     7     4     5    1
     8     4     9    1
     9     5    10    1
