@<TRIPOS>MOLECULE
ZINC01481994
 55 58 0 0 0
SMALL
GASTEIGER

@<TRIPOS>ATOM
      1 C           4.8065    1.4063    0.5628 C.3     1  UNL1       -0.0619
      2 C           3.3289    1.2925    1.1082 C.3     1  UNL1       -0.0368
      3 H           3.3158    0.4795    1.9048 H       1  UNL1        0.0304
      4 C           2.4683    0.8863   -0.0748 C.3     1  UNL1       -0.0280
      5 C           1.1366    1.7036    0.0004 C.2     1  UNL1       -0.0598
      6 C          -0.0125    1.0732    0.0079 C.2     1  UNL1       -0.0194
      7 C          -1.2394    1.7826   -0.0182 C.2     1  UNL1        0.1561
      8 O          -2.3055    1.2006   -0.0062 O.2     1  UNL1       -0.2927
      9 C          -1.2329    3.2485   -0.1095 C.3     1  UNL1        0.0107
     10 C           0.0164    3.8192    0.6659 C.3     1  UNL1       -0.0367
     11 C           1.2223    3.1890    0.0879 C.3     1  UNL1       -0.0072
     12 C           2.4248    3.6429    0.8934 C.3     1  UNL1       -0.0286
     13 H           3.2975    3.8935    0.1793 H       1  UNL1        0.0312
     14 C           2.9061    2.6012    1.7969 C.3     1  UNL1       -0.0311
     15 H           2.0430    2.2787    2.4315 H       1  UNL1        0.0309
     16 C           4.0398    3.0110    2.7701 C.3     1  UNL1       -0.0296
     17 H           5.0504    3.0864    2.3240 H       1  UNL1        0.0310
     18 C           3.9959    1.9807    4.0206 C.3     1  UNL1       -0.0467
     19 C           2.8476    2.5368    4.8391 C.3     1  UNL1       -0.0235
     20 C           2.9582    4.1285    4.7825 C.3     1  UNL1        0.0689
     21 C           3.7176    4.3399    3.4773 C.3     1  UNL1       -0.0004
     22 C           3.1425    5.4489    2.4817 C.3     1  UNL1       -0.0445
     23 C           2.0061    4.8984    1.6549 C.3     1  UNL1       -0.0486
     24 C           5.1173    4.8960    3.9124 C.3     1  UNL1       -0.0567
     25 C           1.5731    4.7057    4.7451 C.3     1  UNL1       -0.0356
     26 O           3.8037    4.6598    5.8689 O.3     1  UNL1       -0.3883
     27 C           1.4597    3.6737   -1.4077 C.3     1  UNL1       -0.0556
     28 H           5.4855    1.6053    1.3919 H       1  UNL1        0.0233
     29 H           5.0882    0.4712    0.0789 H       1  UNL1        0.0233
     30 H           4.8656    2.2211   -0.1588 H       1  UNL1        0.0233
     31 H           2.2393   -0.1743    0.0449 H       1  UNL1        0.0313
     32 H           2.9454    1.1151   -0.9664 H       1  UNL1        0.0313
     33 H           0.0021   -0.0041    0.0020 H       1  UNL1        0.0652
     34 H          -2.0661    3.6121    0.3072 H       1  UNL1        0.0345
     35 H          -1.2036    3.6107   -1.1279 H       1  UNL1        0.0345
     36 H          -0.1088    3.5015    1.6703 H       1  UNL1        0.0278
     37 H           0.0043    4.8590    0.5399 H       1  UNL1        0.0278
     38 H           3.7910    1.0586    3.6324 H       1  UNL1        0.0269
     39 H           4.9855    2.0397    4.5087 H       1  UNL1        0.0269
     40 H           3.0581    2.2457    5.9562 H       1  UNL1        0.0293
     41 H           1.8995    2.2773    4.5737 H       1  UNL1        0.0293
     42 H           2.8917    6.2946    3.0280 H       1  UNL1        0.0272
     43 H           3.9400    5.7882    1.8238 H       1  UNL1        0.0272
     44 H           1.7138    5.6812    0.9713 H       1  UNL1        0.0268
     45 H           1.1653    4.6890    2.2174 H       1  UNL1        0.0268
     46 H           5.7399    5.0436    3.0300 H       1  UNL1        0.0236
     47 H           4.9860    5.8474    4.4277 H       1  UNL1        0.0236
     48 H           5.5991    4.1835    4.5820 H       1  UNL1        0.0236
     49 H           1.0033    4.2314    3.9461 H       1  UNL1        0.0257
     50 H           1.0788    4.5263    5.6998 H       1  UNL1        0.0257
     51 H           1.6315    5.7787    4.5621 H       1  UNL1        0.0257
     52 H           3.4124    4.5751    6.7491 H       1  UNL1        0.2102
     53 H           0.6241    3.3541   -2.0303 H       1  UNL1        0.0238
     54 H           1.5343    4.7610   -1.4298 H       1  UNL1        0.0238
     55 H           2.3837    3.2384   -1.7883 H       1  UNL1        0.0238
@<TRIPOS>BOND
     1     1     2    1
     2     1    28    1
     3     1    29    1
     4     1    30    1
     5     2     3    1
     6     2    14    1
     7     2     4    1
     8     4     5    1
     9     4    31    1
    10     4    32    1
    11     5    11    1
    12     5     6    2
    13     6     7    1
    14     6    33    1
    15     7     8    2
    16     7     9    1
    17     9    10    1
    18     9    34    1
    19     9    35    1
    20    10    11    1
    21    10    36    1
    22    10    37    1
    23    11    12    1
    24    11    27    1
    25    12    13    1
    26    12    23    1
    27    12    14    1
    28    14    15    1
    29    14    16    1
    30    16    17    1
    31    16    21    1
    32    16    18    1
    33    18    19    1
    34    18    38    1
    35    18    39    1
    36    19    20    1
    37    19    40    1
    38    19    41    1
    39    20    21    1
    40    20    25    1
    41    20    26    1
    42    21    22    1
    43    21    24    1
    44    22    23    1
    45    22    42    1
    46    22    43    1
    47    23    44    1
    48    23    45    1
    49    24    46    1
    50    24    47    1
    51    24    48    1
    52    25    49    1
    53    25    50    1
    54    25    51    1
    55    26    52    1
    56    27    53    1
    57    27    54    1
    58    27    55    1
