@<TRIPOS>MOLECULE
ZINC00967922
 51 52 0 0 0
SMALL
GASTEIGER

@<TRIPOS>ATOM
      1 C          -6.6714    6.7716    5.8096 C.3     1  UNL1       -0.0245
      2 C          -5.3281    6.0527    5.9498 C.3     1  UNL1       -0.0345
      3 C          -5.9544    4.2357    7.4490 C.3     1  UNL1       -0.0314
      4 C          -5.6306    2.7303    7.5592 C.3     1  UNL1       -0.0074
      5 C          -4.5422    2.4756    6.4960 C.3     1  UNL1       -0.0034
      6 C          -4.3000    3.8485    5.8330 C.3     1  UNL1       -0.0048
      7 H          -3.4579    4.3552    6.3045 H       1  UNL1        0.0867
      8 C          -4.0481    3.6798    4.3333 C.3     1  UNL1        0.0548
      9 N          -2.8005    2.9398    4.1279 N.am    1  UNL1       -0.3059
     10 C          -2.4253    2.5836    2.8834 C.2     1  UNL1        0.2478
     11 O          -3.1223    2.8765    1.9311 O.2     1  UNL1       -0.2701
     12 C          -1.1690    1.8383    2.6766 C.ar    1  UNL1        0.0800
     13 C          -0.3654    1.4993    3.7680 C.ar    1  UNL1       -0.0212
     14 C           0.8066    0.8028    3.5681 C.ar    1  UNL1        0.0891
     15 C           1.1926    0.4365    2.2889 C.ar    1  UNL1       -0.0334
     16 C           0.4051    0.7601    1.2022 C.ar    1  UNL1       -0.0174
     17 C          -0.7750    1.4660    1.3843 C.ar    1  UNL1        0.1323
     18 O          -1.5470    1.7896    0.3168 O.3     1  UNL1       -0.4944
     19 C          -1.0814    1.3767   -0.9695 C.3     1  UNL1        0.0788
     20 S           1.8186    0.3755    4.9458 S.O2    1  UNL1       -0.0033
     21 O           3.1298    0.2600    4.4104 O.2     1  UNL1       -0.1694
     22 O           1.5222    1.3555    5.9312 O.2     1  UNL1       -0.1694
     23 C           1.2165   -1.2500    5.4802 C.3     1  UNL1        0.0681
     24 C           2.0318   -1.7253    6.6844 C.3     1  UNL1       -0.0453
     25 H          -7.1844    6.4125    4.9174 H       1  UNL1        0.0281
     26 H          -7.2850    6.5696    6.6876 H       1  UNL1        0.0281
     27 H          -6.5019    7.8450    5.7239 H       1  UNL1        0.0281
     28 H          -4.8152    6.4119    6.8420 H       1  UNL1        0.0812
     29 H          -4.7146    6.2547    5.0718 H       1  UNL1        0.0812
     30 H          -7.0206    4.4071    7.5973 H       1  UNL1        0.0814
     31 H          -5.3741    4.8036    8.1762 H       1  UNL1        0.0814
     32 H          -6.5178    2.1353    7.3427 H       1  UNL1        0.0319
     33 H          -5.2510    2.4949    8.5535 H       1  UNL1        0.0319
     34 H          -4.8953    1.7556    5.7578 H       1  UNL1        0.0322
     35 H          -3.6274    2.1161    6.9672 H       1  UNL1        0.0322
     36 H          -3.9697    4.6611    3.8654 H       1  UNL1        0.0518
     37 H          -4.8752    3.1289    3.8856 H       1  UNL1        0.0518
     38 H          -2.2446    2.7061    4.8876 H       1  UNL1        0.1492
     39 H          -0.6625    1.7825    4.7669 H       1  UNL1        0.0645
     40 H           2.1126   -0.1096    2.1416 H       1  UNL1        0.0638
     41 H           0.7104    0.4672    0.2085 H       1  UNL1        0.0655
     42 H          -0.9911    0.2907   -0.9919 H       1  UNL1        0.0660
     43 H          -0.1079    1.8264   -1.1651 H       1  UNL1        0.0660
     44 H          -1.7900    1.6982   -1.7328 H       1  UNL1        0.0660
     45 H           0.1657   -1.1743    5.7599 H       1  UNL1        0.0501
     46 H           1.3245   -1.9640    4.6637 H       1  UNL1        0.0501
     47 H           3.0826   -1.8010    6.4047 H       1  UNL1        0.0245
     48 H           1.9237   -1.0113    7.5010 H       1  UNL1        0.0245
     49 H           1.6700   -2.7020    7.0056 H       1  UNL1        0.0245
     50 N          -5.5475    4.5773    6.0871 N.4     1  UNL1        0.2383
     51 H          -6.2701    4.2807    5.4207 H       1  UNL1        0.2037
@<TRIPOS>UNITY_ATOM_ATTR
50 1
charge 1
@<TRIPOS>BOND
     1     1     2    1
     2     1    25    1
     3     1    26    1
     4     1    27    1
     5     2    28    1
     6     2    29    1
     7     2    50    1
     8     3     4    1
     9     3    30    1
    10     3    31    1
    11     3    50    1
    12     4     5    1
    13     4    32    1
    14     4    33    1
    15     5     6    1
    16     5    34    1
    17     5    35    1
    18     6     7    1
    19     6     8    1
    20     6    50    1
    21     8     9    1
    22     8    36    1
    23     8    37    1
    24     9    10   am
    25     9    38    1
    26    10    11    2
    27    10    12    1
    28    12    17   ar
    29    12    13   ar
    30    13    14   ar
    31    13    39    1
    32    14    15   ar
    33    14    20    1
    34    15    16   ar
    35    15    40    1
    36    16    17   ar
    37    16    41    1
    38    17    18    1
    39    18    19    1
    40    19    42    1
    41    19    43    1
    42    19    44    1
    43    20    21    2
    44    20    22    2
    45    20    23    1
    46    23    24    1
    47    23    45    1
    48    23    46    1
    49    24    47    1
    50    24    48    1
    51    24    49    1
    52    50    51    1
