@<TRIPOS>MOLECULE
ZINC11616776
 49 52 0 0 0
SMALL
GASTEIGER

@<TRIPOS>ATOM
      1 C           0.7316    1.5499   -0.0755 C.ar    1  UNL1       -0.0493
      2 C          -0.4458    2.2688   -0.1483 C.ar    1  UNL1       -0.0197
      3 C          -0.4200    3.6521   -0.0458 C.ar    1  UNL1        0.1169
      4 C           0.7900    4.3108    0.1178 C.ar    1  UNL1       -0.0197
      5 C           1.9652    3.5877    0.1843 C.ar    1  UNL1       -0.0493
      6 C           1.9362    2.2087    0.0880 C.ar    1  UNL1        0.0093
      7 CA          3.2197    1.4223    0.1609 C.3     1  UNL1        0.0789
      8 HA          3.0664    0.4353   -0.2754 H       1  UNL1        0.1002
      9 C           3.6377    1.2755    1.6013 C.2     1  UNL1        0.2665
     10 O           4.4948    2.0001    2.0609 O.2     1  UNL1       -0.2692
     11 N           3.0591    0.3388    2.3788 N.am    1  UNL1       -0.2968
     12 CA          3.4655    0.1961    3.7790 C.3     1  UNL1        0.1285
     13 HA          3.9033    1.1065    4.1882 H       1  UNL1        0.0622
     14 C           2.3905   -0.4194    4.6685 C.3     1  UNL1        0.1041
     15 H           1.4960   -0.7687    4.1527 H       1  UNL1        0.0644
     16 N           3.4237   -1.4509    5.0028 N.am    1  UNL1       -0.2533
     17 C           4.2860   -1.0532    4.0514 C.2     1  UNL1        0.2438
     18 O           5.3114   -1.5105    3.5923 O.2     1  UNL1       -0.2731
     19 CA          3.4006   -2.3312    6.0972 C.2     1  UNL1        0.0607
     20 C           2.6480   -2.0632    7.1535 C.2     1  UNL1       -0.0264
     21 C           1.7145   -0.9155    7.3617 C.3     1  UNL1        0.0195
     22 S           2.0684    0.4657    6.2311 S.3     1  UNL1       -0.1311
     23 C           2.7456   -3.0438    8.2936 C.3     1  UNL1        0.0237
     24 S           3.8019   -2.3531    9.5965 S.3     1  UNL1       -0.0982
     25 C           3.8156   -3.6010   10.8404 C.ar    1  UNL1        0.1387
     26 C           4.4788   -3.5585   12.0263 C.ar    1  UNL1        0.0828
     27 N           4.2473   -4.6907   12.6899 N.ar    1  UNL1       -0.1621
     28 N           3.4705   -5.4532   12.0028 N.ar    1  UNL1       -0.1957
     29 N           3.1632   -4.7973   10.8012 N.ar    1  UNL1       -0.1485
     30 H           3.1427   -6.3570   12.2779 H       1  UNL1        0.2125
     31 C           4.2172   -3.5581    6.0698 C.2     1  UNL1        0.0860
     32 O           5.3733   -3.5269    6.4426 O.co2   1  UNL1       -0.5433
     33 O          -1.5774    4.3613   -0.1120 O.3     1  UNL1       -0.5068
     34 H           0.7115    0.4727   -0.1508 H       1  UNL1        0.0623
     35 H          -1.3860    1.7541   -0.2808 H       1  UNL1        0.0654
     36 H           0.8132    5.3879    0.1934 H       1  UNL1        0.0654
     37 H           2.9075    4.0999    0.3112 H       1  UNL1        0.0623
     38 H           2.3737   -0.2407    2.0112 H       1  UNL1        0.1497
     39 H           1.8078   -0.5649    8.3896 H       1  UNL1        0.0423
     40 H           0.6928   -1.2567    7.1954 H       1  UNL1        0.0423
     41 H           1.7504   -3.2341    8.6954 H       1  UNL1        0.0427
     42 H           3.1767   -3.9780    7.9335 H       1  UNL1        0.0427
     43 H           5.0930   -2.7408   12.3738 H       1  UNL1        0.0875
     44 H1          4.0428    2.1837   -1.5657 H       1  UNL1        0.2005
     45 H2          4.4310    3.0477   -0.1987 H       1  UNL1        0.2005
     46 H          -1.8260    4.6256   -1.0083 H       1  UNL1        0.2921
     47 OXT         3.6815   -4.7145    5.6314 O.co2   1  UNL1       -0.5433
     48 N           4.2896    2.1137   -0.5799 N.4     1  UNL1        0.2307
     49 H3          5.1618    1.5795   -0.4900 H       1  UNL1        0.2005
@<TRIPOS>UNITY_ATOM_ATTR
47 1
charge -1
48 1
charge 1
@<TRIPOS>BOND
     1     1     6   ar
     2     1     2   ar
     3     1    34    1
     4     2     3   ar
     5     2    35    1
     6     3     4   ar
     7     3    33    1
     8     4     5   ar
     9     4    36    1
    10     5     6   ar
    11     5    37    1
    12     6     7    1
    13     7     8    1
    14     7     9    1
    15     7    48    1
    16     9    10    2
    17     9    11   am
    18    11    12    1
    19    11    38    1
    20    12    13    1
    21    12    17    1
    22    12    14    1
    23    14    15    1
    24    14    22    1
    25    14    16    1
    26    16    17   am
    27    16    19    1
    28    17    18    2
    29    19    20    2
    30    19    31    1
    31    20    21    1
    32    20    23    1
    33    21    22    1
    34    21    39    1
    35    21    40    1
    36    23    24    1
    37    23    41    1
    38    23    42    1
    39    24    25    1
    40    25    26   ar
    41    25    29   ar
    42    26    43    1
    43    26    27   ar
    44    27    28   ar
    45    28    30    1
    46    28    29   ar
    47    31    32   ar
    48    31    47   ar
    49    33    46    1
    50    44    48    1
    51    45    48    1
    52    48    49    1
