@<TRIPOS>MOLECULE
ZINC03831153
 56 57 0 0 0
SMALL
GASTEIGER

@<TRIPOS>ATOM
      1 C          -0.6657    1.0783  -10.6312 C.3     1  UNL1       -0.0533
      2 C          -1.6239    0.0956   -9.9552 C.3     1  UNL1        0.0423
      3 H          -1.1934   -0.9055   -9.9779 H       1  UNL1        0.0400
      4 C          -1.8499    0.5208   -8.5030 C.3     1  UNL1        0.0118
      5 S          -0.2960    0.3825   -7.5851 S.3     1  UNL1       -0.0855
      6 C          -0.8166    0.9024   -6.0392 C.2     1  UNL1        0.2092
      7 O          -1.9734    1.2244   -5.8652 O.2     1  UNL1       -0.2832
      8 C           0.1619    0.9601   -4.8946 C.3     1  UNL1        0.0889
      9 H           0.5357    0.0474   -4.7294 H       1  UNL1        0.0583
     10 C           1.2995    1.9216   -5.2441 C.3     1  UNL1       -0.0388
     11 N          -0.5238    1.4325   -3.6893 N.am    1  UNL1       -0.3048
     12 C          -0.0473    1.1066   -2.4714 C.2     1  UNL1        0.2167
     13 O           0.9491    0.4223   -2.3733 O.2     1  UNL1       -0.2755
     14 C          -0.7527    1.5927   -1.2315 C.3     1  UNL1        0.0356
     15 C          -0.0127    1.0858    0.0080 C.3     1  UNL1       -0.0419
     16 C          -0.7288    1.5792    1.2668 C.3     1  UNL1       -0.0524
     17 C          -0.7496    3.1091    1.2752 C.3     1  UNL1       -0.0530
     18 C          -1.4896    3.6159    0.0357 C.3     1  UNL1       -0.0524
     19 C          -0.7734    3.1225   -1.2231 C.3     1  UNL1       -0.0419
     20 C          -2.9405    0.0929  -10.6885 C.2     1  UNL1        0.2197
     21 O          -3.9592    0.4008  -10.1068 O.2     1  UNL1       -0.2753
     22 N          -2.9859   -0.2517  -11.9907 N.am    1  UNL1       -0.2930
     23 C          -1.8296   -0.6462  -12.8159 C.3     1  UNL1        0.0154
     24 C          -2.4308   -1.5057  -13.9558 C.3     1  UNL1       -0.0351
     25 C          -3.7688   -0.7691  -14.2289 C.3     1  UNL1       -0.0276
     26 C          -4.1975   -0.3025  -12.8219 C.3     1  UNL1        0.0655
     27 H          -4.9098   -1.0091  -12.3960 H       1  UNL1        0.0562
     28 C          -4.8188    1.0678  -12.9065 C.2     1  UNL1        0.0622
     29 O          -4.3069    1.9998  -12.3326 O.co2   1  UNL1       -0.5479
     30 H          -0.5047    0.7753  -11.6658 H       1  UNL1        0.0237
     31 H          -1.0962    2.0794  -10.6085 H       1  UNL1        0.0237
     32 H           0.2866    1.0802  -10.1008 H       1  UNL1        0.0237
     33 H          -2.5997   -0.1260   -8.0475 H       1  UNL1        0.0388
     34 H          -2.1967    1.5538   -8.4766 H       1  UNL1        0.0388
     35 H           2.0073    1.9633   -4.4162 H       1  UNL1        0.0252
     36 H           1.8097    1.5700   -6.1409 H       1  UNL1        0.0252
     37 H           0.8921    2.9164   -5.4243 H       1  UNL1        0.0252
     38 H          -1.3208    1.9799   -3.7677 H       1  UNL1        0.1494
     39 H          -1.7753    1.2154   -1.2238 H       1  UNL1        0.0394
     40 H           0.0021   -0.0041    0.0020 H       1  UNL1        0.0272
     41 H           1.0099    1.4631    0.0003 H       1  UNL1        0.0272
     42 H          -1.7514    1.2020    1.2746 H       1  UNL1        0.0265
     43 H          -0.2017    1.2182    2.1499 H       1  UNL1        0.0265
     44 H           0.2730    3.4864    1.2675 H       1  UNL1        0.0265
     45 H          -1.2598    3.4606    2.1720 H       1  UNL1        0.0265
     46 H          -1.5044    4.7058    0.0417 H       1  UNL1        0.0265
     47 H          -2.5122    3.2386    0.0434 H       1  UNL1        0.0265
     48 H           0.2491    3.4998   -1.2308 H       1  UNL1        0.0272
     49 H          -1.3006    3.4836   -2.1062 H       1  UNL1        0.0272
     50 H          -1.3371    0.2359  -13.2252 H       1  UNL1        0.0465
     51 H          -1.1257   -1.2336  -12.2264 H       1  UNL1        0.0465
     52 H          -1.7893   -1.4901  -14.8369 H       1  UNL1        0.0281
     53 H          -2.6087   -2.5280  -13.6220 H       1  UNL1        0.0281
     54 H          -3.6120    0.0827  -14.8906 H       1  UNL1        0.0287
     55 H          -4.5061   -1.4524  -14.6504 H       1  UNL1        0.0287
     56 O          -5.9410    1.2531  -13.6194 O.co2   1  UNL1       -0.5479
@<TRIPOS>UNITY_ATOM_ATTR
56 1
charge -1
@<TRIPOS>BOND
     1     1     2    1
     2     1    30    1
     3     1    31    1
     4     1    32    1
     5     2     3    1
     6     2     4    1
     7     2    20    1
     8     4     5    1
     9     4    33    1
    10     4    34    1
    11     5     6    1
    12     6     7    2
    13     6     8    1
    14     8     9    1
    15     8    10    1
    16     8    11    1
    17    10    35    1
    18    10    36    1
    19    10    37    1
    20    11    12   am
    21    11    38    1
    22    12    13    2
    23    12    14    1
    24    14    19    1
    25    14    15    1
    26    14    39    1
    27    15    16    1
    28    15    40    1
    29    15    41    1
    30    16    17    1
    31    16    42    1
    32    16    43    1
    33    17    18    1
    34    17    44    1
    35    17    45    1
    36    18    19    1
    37    18    46    1
    38    18    47    1
    39    19    48    1
    40    19    49    1
    41    20    21    2
    42    20    22   am
    43    22    26    1
    44    22    23    1
    45    23    24    1
    46    23    50    1
    47    23    51    1
    48    24    25    1
    49    24    52    1
    50    24    53    1
    51    25    26    1
    52    25    54    1
    53    25    55    1
    54    26    27    1
    55    26    28    1
    56    28    29   ar
    57    28    56   ar
