@<TRIPOS>MOLECULE
ZINC08101199
 32 31 0 0 0
SMALL
GASTEIGER

@<TRIPOS>ATOM
      1 C          -3.7943    1.8926   -0.0585 C.3     1  UNL1        0.0104
      2 C          -5.2259    1.3544   -0.1012 C.3     1  UNL1        0.2060
      3 O          -5.4301    0.4566    0.9916 O.2     1  UNL1       -0.2111
      4 N          -6.7308   -0.1006    1.0440 N.pl3   1  UNL1        0.2845
      5 O          -7.5566    0.2004    0.2008 O.2     1  UNL1        0.0934
      6 O          -7.0223   -0.8847    1.9293 O.co2   1  UNL1       -0.5338
      7 C          -4.6565    3.7984    1.1610 C.3     1  UNL1        0.0104
      8 C          -4.3780    4.8256    0.0618 C.3     1  UNL1        0.2060
      9 O          -4.5492    4.2124   -1.2176 O.2     1  UNL1       -0.2111
     10 N          -4.3137    5.0826   -2.3095 N.pl3   1  UNL1        0.2845
     11 O          -3.9960    6.2409   -2.1076 O.2     1  UNL1        0.0934
     12 O          -4.4288    4.6728   -3.4507 O.co2   1  UNL1       -0.5338
     13 C          -3.6430    1.9533    2.3573 C.3     1  UNL1        0.0104
     14 C          -2.4355    1.0139    2.3724 C.3     1  UNL1        0.2060
     15 O          -1.2328    1.7847    2.4130 O.2     1  UNL1       -0.2111
     16 N          -0.0501    1.0062    2.4299 N.pl3   1  UNL1        0.2845
     17 O          -0.1210   -0.2096    2.4099 O.2     1  UNL1        0.0934
     18 O           1.0380    1.5524    2.4644 O.co2   1  UNL1       -0.5338
     19 H          -3.0942    1.0590   -0.0037 H       1  UNL1        0.0851
     20 H          -3.5976    2.4737   -0.9594 H       1  UNL1        0.0851
     21 H          -5.3874    0.8258   -1.0407 H       1  UNL1        0.0825
     22 H          -5.9285    2.1843   -0.0258 H       1  UNL1        0.0825
     23 H          -5.6376    3.3515    1.0006 H       1  UNL1        0.0851
     24 H          -4.6364    4.2918    2.1328 H       1  UNL1        0.0851
     25 H          -5.0719    5.6604    0.1603 H       1  UNL1        0.0825
     26 H          -3.3552    5.1903    0.1559 H       1  UNL1        0.0825
     27 H          -3.5966    2.6186    3.2195 H       1  UNL1        0.0851
     28 H          -4.5605    1.3664    2.4003 H       1  UNL1        0.0851
     29 H          -2.4855    0.3720    3.2519 H       1  UNL1        0.0825
     30 H          -2.4425    0.3987    1.4726 H       1  UNL1        0.0825
     31 N          -3.6029    2.7625    1.1211 N.4     1  UNL1        0.2430
     32 H          -2.6868    3.2211    1.0522 H       1  UNL1        0.2037
@<TRIPOS>UNITY_ATOM_ATTR
4 1
charge 1
6 1
charge -1
10 1
charge 1
12 1
charge -1
16 1
charge 1
18 1
charge -1
31 1
charge 1
@<TRIPOS>BOND
     1     1     2    1
     2     1    19    1
     3     1    20    1
     4     1    31    1
     5     2     3    1
     6     2    21    1
     7     2    22    1
     8     3     4    1
     9     4     5    2
    10     4     6    1
    11     7     8    1
    12     7    23    1
    13     7    24    1
    14     7    31    1
    15     8     9    1
    16     8    25    1
    17     8    26    1
    18     9    10    1
    19    10    11    2
    20    10    12    1
    21    13    14    1
    22    13    27    1
    23    13    28    1
    24    13    31    1
    25    14    15    1
    26    14    29    1
    27    14    30    1
    28    15    16    1
    29    16    17    2
    30    16    18    1
    31    31    32    1
