@<TRIPOS>MOLECULE
ZINC14693643
 73 75 0 0 0
SMALL
GASTEIGER

@<TRIPOS>ATOM
      1 C           9.5542   -0.7027   -0.3223 C.3     1  UNL1       -0.0621
      2 C           8.3549   -1.6341   -0.1349 C.3     1  UNL1       -0.0405
      3 H           7.6632   -1.1956    0.5845 H       1  UNL1        0.0301
      4 C           8.8383   -2.9899    0.3837 C.3     1  UNL1       -0.0501
      5 C           9.4388   -2.8173    1.7803 C.3     1  UNL1       -0.0502
      6 C           9.9222   -4.1731    2.2988 C.3     1  UNL1       -0.0245
      7 C          10.5227   -4.0004    3.6954 C.3     1  UNL1        0.0605
      8 C          11.1180   -5.3302    4.1626 C.3     1  UNL1       -0.0363
      9 C          11.6222   -2.9374    3.6499 C.3     1  UNL1       -0.0363
     10 O           9.5007   -3.5900    4.6059 O.3     1  UNL1       -0.3891
     11 C           7.6431   -1.8251   -1.4757 C.3     1  UNL1       -0.0325
     12 H           8.3339   -2.2283   -2.2162 H       1  UNL1        0.0309
     13 C           7.0486   -0.4792   -1.9666 C.3     1  UNL1       -0.0489
     14 C           5.5208   -0.7183   -2.1768 C.3     1  UNL1       -0.0457
     15 C           5.4485   -2.2325   -2.3866 C.3     1  UNL1       -0.0139
     16 H           5.7837   -2.4998   -3.3888 H       1  UNL1        0.0351
     17 C           6.4463   -2.7490   -1.3115 C.3     1  UNL1       -0.0225
     18 C           6.6447   -4.2283   -1.5454 C.3     1  UNL1       -0.0465
     19 C           5.3202   -4.9331   -1.2073 C.3     1  UNL1       -0.0488
     20 C           4.1693   -4.4162   -2.0601 C.3     1  UNL1       -0.0312
     21 C           4.1402   -2.8945   -2.0712 C.2     1  UNL1       -0.0659
     22 C           3.0322   -2.1997   -1.8136 C.2     1  UNL1       -0.0620
     23 C           1.7819   -2.9004   -1.5117 C.2     1  UNL1       -0.0583
     24 C           0.6606   -2.1972   -1.2509 C.2     1  UNL1       -0.0423
     25 C           0.6531   -0.6816   -1.2605 C.3     1  UNL1       -0.0013
     26 C          -0.0771   -0.1945   -0.0048 C.3     1  UNL1        0.0595
     27 H           0.4655   -0.5249    0.8809 H       1  UNL1        0.0596
     28 C          -1.4944   -0.7681    0.0240 C.3     1  UNL1       -0.0226
     29 C          -1.4351   -2.2893    0.1978 C.3     1  UNL1       -0.0256
     30 C          -0.6197   -2.8674   -0.9416 C.2     1  UNL1       -0.0511
     31 C          -1.0373   -3.9286   -1.6316 C.2     1  UNL1       -0.0952
     32 O          -0.1426    1.2329   -0.0169 O.3     1  UNL1       -0.3915
     33 C           5.8383   -2.5459    0.0778 C.3     1  UNL1       -0.0588
     34 H          10.2459   -1.1412   -1.0416 H       1  UNL1        0.0233
     35 H           9.2098    0.2633   -0.6917 H       1  UNL1        0.0233
     36 H          10.0613   -0.5666    0.6330 H       1  UNL1        0.0233
     37 H           7.9969   -3.6811    0.4329 H       1  UNL1        0.0268
     38 H           9.5963   -3.3877   -0.2911 H       1  UNL1        0.0268
     39 H          10.2802   -2.1261    1.7311 H       1  UNL1        0.0266
     40 H           8.6808   -2.4195    2.4550 H       1  UNL1        0.0266
     41 H           9.0808   -4.8643    2.3480 H       1  UNL1        0.0293
     42 H          10.6802   -4.5709    1.6240 H       1  UNL1        0.0293
     43 H          11.8976   -5.6433    3.4680 H       1  UNL1        0.0257
     44 H          11.5458   -5.2072    5.1575 H       1  UNL1        0.0257
     45 H          10.3347   -6.0875    4.1949 H       1  UNL1        0.0257
     46 H          11.1981   -1.9901    3.3171 H       1  UNL1        0.0257
     47 H          12.0500   -2.8144    4.6449 H       1  UNL1        0.0257
     48 H          12.4017   -3.2505    2.9554 H       1  UNL1        0.0257
     49 H           8.7694   -4.2177    4.6853 H       1  UNL1        0.2101
     50 H           7.2113    0.2968   -1.2187 H       1  UNL1        0.0268
     51 H           7.5078   -0.1898   -2.9119 H       1  UNL1        0.0268
     52 H           5.1570   -0.1886   -3.0572 H       1  UNL1        0.0271
     53 H           4.9611   -0.4242   -1.2890 H       1  UNL1        0.0271
     54 H           6.9026   -4.4065   -2.5893 H       1  UNL1        0.0271
     55 H           7.4383   -4.6021   -0.8984 H       1  UNL1        0.0271
     56 H           5.4350   -6.0041   -1.3741 H       1  UNL1        0.0268
     57 H           5.0841   -4.7607   -0.1572 H       1  UNL1        0.0268
     58 H           3.2286   -4.7903   -1.6560 H       1  UNL1        0.0310
     59 H           4.2911   -4.7804   -3.0802 H       1  UNL1        0.0310
     60 H           3.0564   -1.1200   -1.8274 H       1  UNL1        0.0617
     61 H           1.7578   -3.9800   -1.4978 H       1  UNL1        0.0620
     62 H           0.1343   -0.3226   -2.1494 H       1  UNL1        0.0338
     63 H           1.6775   -0.3092   -1.2572 H       1  UNL1        0.0338
     64 H          -2.0455   -0.3305    0.8563 H       1  UNL1        0.0293
     65 H          -2.0012   -0.5286   -0.9108 H       1  UNL1        0.0293
     66 H          -2.4440   -2.7012    0.1731 H       1  UNL1        0.0314
     67 H          -0.9619   -2.5337    1.1488 H       1  UNL1        0.0314
     68 H          -0.4355   -4.3188   -2.4390 H       1  UNL1        0.0538
     69 H          -1.9776   -4.3982   -1.3833 H       1  UNL1        0.0538
     70 H           0.7218    1.6661   -0.0331 H       1  UNL1        0.2098
     71 H           4.8461   -2.9961    0.1095 H       1  UNL1        0.0235
     72 H           6.4755   -3.0176    0.8257 H       1  UNL1        0.0235
     73 H           5.7601   -1.4791    0.2877 H       1  UNL1        0.0235
@<TRIPOS>BOND
     1     1     2    1
     2     1    34    1
     3     1    35    1
     4     1    36    1
     5     2     3    1
     6     2     4    1
     7     2    11    1
     8     4     5    1
     9     4    37    1
    10     4    38    1
    11     5     6    1
    12     5    39    1
    13     5    40    1
    14     6     7    1
    15     6    41    1
    16     6    42    1
    17     7     8    1
    18     7     9    1
    19     7    10    1
    20     8    43    1
    21     8    44    1
    22     8    45    1
    23     9    46    1
    24     9    47    1
    25     9    48    1
    26    10    49    1
    27    11    12    1
    28    11    17    1
    29    11    13    1
    30    13    14    1
    31    13    50    1
    32    13    51    1
    33    14    15    1
    34    14    52    1
    35    14    53    1
    36    15    16    1
    37    15    21    1
    38    15    17    1
    39    17    18    1
    40    17    33    1
    41    18    19    1
    42    18    54    1
    43    18    55    1
    44    19    20    1
    45    19    56    1
    46    19    57    1
    47    20    21    1
    48    20    58    1
    49    20    59    1
    50    21    22    2
    51    22    23    1
    52    22    60    1
    53    23    24    2
    54    23    61    1
    55    24    30    1
    56    24    25    1
    57    25    26    1
    58    25    62    1
    59    25    63    1
    60    26    27    1
    61    26    28    1
    62    26    32    1
    63    28    29    1
    64    28    64    1
    65    28    65    1
    66    29    30    1
    67    29    66    1
    68    29    67    1
    69    30    31    2
    70    31    68    1
    71    31    69    1
    72    32    70    1
    73    33    71    1
    74    33    72    1
    75    33    73    1
