@<TRIPOS>MOLECULE
ZINC03831472
 33 33 0 0 0
SMALL
GASTEIGER

@<TRIPOS>ATOM
      1 C           3.3384    5.8659    3.8697 C.3     1  UNL1        0.0309
      2 N           2.2823    5.1281    3.1723 N.am    1  UNL1       -0.1443
      3 C           2.3015    3.7806    3.1531 C.2     1  UNL1        0.3243
      4 O           3.1947    3.1779    3.7142 O.2     1  UNL1       -0.2508
      5 N           1.3299    3.1019    2.5115 N.am    1  UNL1       -0.2876
      6 C           1.3508    1.6372    2.4906 C.3     1  UNL1        0.1036
      7 H           1.7532    1.2652    3.4329 H       1  UNL1        0.0575
      8 C           2.2295    1.1542    1.3326 C.3     1  UNL1        0.1065
      9 H           3.2304    1.5734    1.4350 H       1  UNL1        0.0640
     10 C           1.6123    1.6185    0.0098 C.3     1  UNL1        0.1112
     11 H           2.2010    1.2322   -0.8222 H       1  UNL1        0.0646
     12 C           0.1789    1.0899   -0.0888 C.3     1  UNL1        0.1129
     13 H           0.1929    0.0000   -0.0949 H       1  UNL1        0.0647
     14 O          -0.5756    1.5505    1.0340 O.3     1  UNL1       -0.3414
     15 C          -0.0725    1.1079    2.2962 C.3     1  UNL1        0.1777
     16 H          -0.0617    0.0182    2.3215 H       1  UNL1        0.0928
     17 O          -0.9113    1.6007    3.3429 O.3     1  UNL1       -0.3654
     18 C          -0.4650    1.5991   -1.3800 C.3     1  UNL1        0.0730
     19 O          -1.7598    1.0135   -1.5297 O.3     1  UNL1       -0.3924
     20 O           1.5988    3.0467   -0.0356 O.3     1  UNL1       -0.3865
     21 O           2.3028   -0.2728    1.3511 O.3     1  UNL1       -0.3871
     22 N           1.3339    5.7682    2.5764 N.2     1  UNL1        0.0524
     23 O           1.3165    6.9859    2.5938 O.2     1  UNL1       -0.1256
     24 H           4.1566    6.0691    3.1789 H       1  UNL1        0.0450
     25 H           2.9370    6.8075    4.2446 H       1  UNL1        0.0450
     26 H           3.7072    5.2701    4.7046 H       1  UNL1        0.0450
     27 H           0.6168    3.5831    2.0634 H       1  UNL1        0.1509
     28 H          -1.8299    1.3046    3.2831 H       1  UNL1        0.2125
     29 H          -0.5598    2.6841   -1.3354 H       1  UNL1        0.0584
     30 H           0.1589    1.3236   -2.2303 H       1  UNL1        0.0584
     31 H          -2.2275    1.2921   -2.3289 H       1  UNL1        0.2095
     32 H           1.2160    3.4109   -0.8455 H       1  UNL1        0.2100
     33 H           2.8391   -0.6484    0.6394 H       1  UNL1        0.2100
@<TRIPOS>BOND
     1     1     2    1
     2     1    24    1
     3     1    25    1
     4     1    26    1
     5     2     3   am
     6     2    22    1
     7     3     4    2
     8     3     5   am
     9     5     6    1
    10     5    27    1
    11     6     7    1
    12     6    15    1
    13     6     8    1
    14     8     9    1
    15     8    10    1
    16     8    21    1
    17    10    11    1
    18    10    12    1
    19    10    20    1
    20    12    13    1
    21    12    14    1
    22    12    18    1
    23    14    15    1
    24    15    16    1
    25    15    17    1
    26    17    28    1
    27    18    19    1
    28    18    29    1
    29    18    30    1
    30    19    31    1
    31    20    32    1
    32    21    33    1
    33    22    23    2
