@<TRIPOS>MOLECULE
ZINC01853550
 38 40 0 0 0
SMALL
GASTEIGER

@<TRIPOS>ATOM
      1 C          -0.6840    3.9887    1.6409 C.3     1  UNL1       -0.0443
      2 C           1.0763    3.6007    0.0243 C.3     1  UNL1        0.0032
      3 H           0.2823    3.9212   -0.6503 H       1  UNL1        0.0903
      4 C           2.3969    4.2274   -0.4185 C.3     1  UNL1       -0.0045
      5 C           3.5295    3.5996    0.4023 C.3     1  UNL1       -0.0367
      6 C           3.6982    2.1477   -0.0406 C.3     1  UNL1        0.0099
      7 H           4.1025    2.1258   -1.0526 H       1  UNL1        0.0397
      8 C           2.3740    1.4300   -0.0192 C.ar    1  UNL1       -0.0315
      9 C           1.1696    2.0975    0.0022 C.ar    1  UNL1        0.0038
     10 C          -0.0166    1.3755    0.0096 C.ar    1  UNL1       -0.0530
     11 C           0.0021   -0.0041    0.0020 C.ar    1  UNL1       -0.0613
     12 C           1.2110   -0.6740   -0.0140 C.ar    1  UNL1       -0.0615
     13 C           2.3907    0.0415   -0.0251 C.ar    1  UNL1       -0.0575
     14 C           4.6556    1.4517    0.8921 C.ar    1  UNL1       -0.0385
     15 C           5.8361    0.9237    0.4027 C.ar    1  UNL1       -0.0565
     16 C           6.7150    0.2852    1.2570 C.ar    1  UNL1       -0.0417
     17 C           6.4139    0.1740    2.6027 C.ar    1  UNL1        0.0593
     18 C           5.2320    0.7026    3.0928 C.ar    1  UNL1        0.0595
     19 C           4.3559    1.3465    2.2372 C.ar    1  UNL1       -0.0382
     20 CL          4.8527    0.5640    4.7812 Cl      1  UNL1       -0.0820
     21 CL          7.5173   -0.6285    3.6762 Cl      1  UNL1       -0.0820
     22 H          -1.2023    4.6362    0.9337 H       1  UNL1        0.0777
     23 H          -1.0338    2.9636    1.5186 H       1  UNL1        0.0777
     24 H          -0.8888    4.3236    2.6578 H       1  UNL1        0.0777
     25 H           2.3696    5.3030   -0.2438 H       1  UNL1        0.0324
     26 H           2.5592    4.0312   -1.4783 H       1  UNL1        0.0324
     27 H           3.2769    3.6331    1.4621 H       1  UNL1        0.0276
     28 H           4.4560    4.1466    0.2279 H       1  UNL1        0.0276
     29 H          -0.9617    1.8983    0.0169 H       1  UNL1        0.0622
     30 H          -0.9247   -0.5586    0.0082 H       1  UNL1        0.0618
     31 H           1.2321   -1.7538   -0.0174 H       1  UNL1        0.0618
     32 H           3.3348   -0.4827   -0.0390 H       1  UNL1        0.0621
     33 H           6.0716    1.0106   -0.6477 H       1  UNL1        0.0621
     34 H           7.6367   -0.1273    0.8740 H       1  UNL1        0.0633
     35 H           3.4358    1.7630    2.6196 H       1  UNL1        0.0635
     36 N           0.7693    4.0493    1.3956 N.4     1  UNL1        0.2303
     37 H           1.2518    3.4407    2.0671 H       1  UNL1        0.2017
     38 H           1.0931    5.0162    1.5160 H       1  UNL1        0.2017
@<TRIPOS>UNITY_ATOM_ATTR
36 1
charge 1
@<TRIPOS>BOND
     1     1    22    1
     2     1    23    1
     3     1    24    1
     4     1    36    1
     5     2     3    1
     6     2     9    1
     7     2     4    1
     8     2    36    1
     9     4     5    1
    10     4    25    1
    11     4    26    1
    12     5     6    1
    13     5    27    1
    14     5    28    1
    15     6     7    1
    16     6     8    1
    17     6    14    1
    18     8    13   ar
    19     8     9   ar
    20     9    10   ar
    21    10    11   ar
    22    10    29    1
    23    11    12   ar
    24    11    30    1
    25    12    13   ar
    26    12    31    1
    27    13    32    1
    28    14    19   ar
    29    14    15   ar
    30    15    16   ar
    31    15    33    1
    32    16    17   ar
    33    16    34    1
    34    17    18   ar
    35    17    21    1
    36    18    19   ar
    37    18    20    1
    38    19    35    1
    39    36    37    1
    40    36    38    1
