@<TRIPOS>MOLECULE
ZINC11616425
 51 54 0 0 0
SMALL
GASTEIGER

@<TRIPOS>ATOM
      1 C          -0.9246    3.9108    1.7833 C.3     1  UNL1       -0.0618
      2 C          -1.1020    2.4445    2.1636 C.3     1  UNL1       -0.0365
      3 H          -0.1936    2.0827    2.6572 H       1  UNL1        0.0304
      4 C          -2.2752    2.3134    3.1367 C.3     1  UNL1       -0.0282
      5 C          -3.6207    2.3842    2.4470 C.2     1  UNL1       -0.0627
      6 C          -3.8011    2.2936    1.1625 C.2     1  UNL1       -0.0661
      7 C          -5.1374    2.3367    0.4636 C.3     1  UNL1       -0.0245
      8 C          -6.3286    2.2548    1.4073 C.3     1  UNL1        0.0098
      9 C          -5.9869    3.0719    2.6382 C.2     1  UNL1        0.1376
     10 O          -6.6338    4.0305    2.9779 O.2     1  UNL1       -0.2971
     11 C          -4.7792    2.6048    3.4088 C.3     1  UNL1        0.0272
     12 C          -2.6147    2.1365    0.2216 C.3     1  UNL1       -0.0163
     13 H          -2.4006    3.1385   -0.1327 H       1  UNL1        0.0349
     14 C          -1.4353    1.5522    0.9789 C.3     1  UNL1       -0.0282
     15 H          -1.8232    0.5966    1.4357 H       1  UNL1        0.0312
     16 C          -0.3190    1.1412    0.0880 C.3     1  UNL1       -0.0284
     17 H          -0.2811    0.0249    0.1043 H       1  UNL1        0.0310
     18 C           1.1048    1.6263    0.3898 C.3     1  UNL1       -0.0458
     19 C           1.8700    1.2027   -0.8974 C.3     1  UNL1       -0.0118
     20 C           0.7990    1.0455   -2.0109 C.3     1  UNL1        0.1317
     21 C          -0.4948    1.5901   -1.3765 C.3     1  UNL1        0.0111
     22 C          -1.7947    1.1160   -1.9583 C.3     1  UNL1       -0.0433
     23 C          -2.9680    1.2754   -0.9797 C.3     1  UNL1       -0.0456
     24 C          -0.3922    3.1180   -1.5244 C.3     1  UNL1       -0.0558
     25 C           0.6813   -0.3628   -2.3974 C.1     1  UNL1       -0.0704
     26 C           0.5869   -1.4912   -2.7071 C.1     1  UNL1       -0.1163
     27 O           1.1479    1.8487   -3.1406 O.3     1  UNL1       -0.3760
     28 H          -1.8472    4.2853    1.3397 H       1  UNL1        0.0233
     29 H          -0.6885    4.4914    2.6751 H       1  UNL1        0.0233
     30 H          -0.1115    4.0037    1.0634 H       1  UNL1        0.0233
     31 H          -2.1919    1.3546    3.6482 H       1  UNL1        0.0313
     32 H          -2.2084    3.1131    3.8713 H       1  UNL1        0.0313
     33 H          -5.1983    1.4960   -0.2335 H       1  UNL1        0.0314
     34 H          -5.2063    3.2615   -0.1121 H       1  UNL1        0.0314
     35 H          -6.4954    1.2995    1.6514 H       1  UNL1        0.0345
     36 H          -7.2165    2.6663    0.9236 H       1  UNL1        0.0345
     37 H          -4.9911    1.7473    3.8776 H       1  UNL1        0.0387
     38 H          -4.5011    3.3619    4.1386 H       1  UNL1        0.0387
     39 H           1.1608    2.6954    0.5438 H       1  UNL1        0.0269
     40 H           1.5084    1.0960    1.2567 H       1  UNL1        0.0269
     41 H           2.5864    1.9739   -1.1755 H       1  UNL1        0.0303
     42 H           2.3777    0.2541   -0.7326 H       1  UNL1        0.0303
     43 H          -2.0132    1.6983   -2.8711 H       1  UNL1        0.0272
     44 H          -1.7470    0.0644   -2.2642 H       1  UNL1        0.0272
     45 H          -3.8149    1.7300   -1.5110 H       1  UNL1        0.0271
     46 H          -3.2876    0.2856   -0.6309 H       1  UNL1        0.0271
     47 H           0.6286    3.4359   -1.3119 H       1  UNL1        0.0236
     48 H          -0.6569    3.4031   -2.5426 H       1  UNL1        0.0236
     49 H          -1.0755    3.5976   -0.8236 H       1  UNL1        0.0236
     50 H           0.5026   -2.5005   -2.9840 H       1  UNL1        0.1229
     51 H           1.9899    1.6069   -3.5501 H       1  UNL1        0.2114
@<TRIPOS>BOND
     1     1     2    1
     2     1    28    1
     3     1    29    1
     4     1    30    1
     5     2     3    1
     6     2    14    1
     7     2     4    1
     8     4     5    1
     9     4    31    1
    10     4    32    1
    11     5    11    1
    12     5     6    2
    13     6     7    1
    14     6    12    1
    15     7     8    1
    16     7    33    1
    17     7    34    1
    18     8     9    1
    19     8    35    1
    20     8    36    1
    21     9    10    2
    22     9    11    1
    23    11    37    1
    24    11    38    1
    25    12    13    1
    26    12    23    1
    27    12    14    1
    28    14    15    1
    29    14    16    1
    30    16    17    1
    31    16    21    1
    32    16    18    1
    33    18    19    1
    34    18    39    1
    35    18    40    1
    36    19    20    1
    37    19    41    1
    38    19    42    1
    39    20    21    1
    40    20    25    1
    41    20    27    1
    42    21    22    1
    43    21    24    1
    44    22    23    1
    45    22    43    1
    46    22    44    1
    47    23    45    1
    48    23    46    1
    49    24    47    1
    50    24    48    1
    51    24    49    1
    52    25    26    3
    53    26    50    1
    54    27    51    1
