@<TRIPOS>MOLECULE
ZINC01530565
 59 61 0 0 0
SMALL
GASTEIGER

@<TRIPOS>ATOM
      1 C          -2.0271    7.1710    4.4752 C.3     1  UNL1       -0.0306
      2 C          -0.8788    6.8290    3.5237 C.3     1  UNL1        0.0899
      3 O          -0.0289    5.8218    4.1332 O.3     1  UNL1       -0.4610
      4 C           1.0324    5.4088    3.4226 C.2     1  UNL1        0.3560
      5 O           1.2441    5.8736    2.3276 O.2     1  UNL1       -0.2444
      6 C           1.9597    4.3655    3.9906 C.3     1  UNL1        0.0771
      7 H           1.3844    3.6475    4.5750 H       1  UNL1        0.0969
      8 C           2.9971    5.0406    4.8900 C.3     1  UNL1        0.0048
      9 C           3.8599    3.9721    5.5644 C.3     1  UNL1       -0.0220
     10 C           4.8817    4.6370    6.4503 C.ar    1  UNL1       -0.0471
     11 C           6.1206    4.9784    5.9409 C.ar    1  UNL1       -0.0586
     12 C           7.0560    5.5931    6.7522 C.ar    1  UNL1       -0.0615
     13 C           6.7565    5.8562    8.0758 C.ar    1  UNL1       -0.0617
     14 C           5.5195    5.5101    8.5866 C.ar    1  UNL1       -0.0615
     15 C           4.5821    4.9005    7.7738 C.ar    1  UNL1       -0.0586
     16 C           1.8226    2.5628    2.3800 C.3     1  UNL1        0.0565
     17 H           0.7694    2.8347    2.4508 H       1  UNL1        0.0950
     18 C           2.0781    1.3122    3.2217 C.3     1  UNL1        0.0030
     19 C           1.5664    0.0792    2.4731 C.3     1  UNL1       -0.0203
     20 C           0.2238    0.3640    1.8559 C.ar    1  UNL1       -0.0257
     21 C          -0.9288   -0.1335    2.4324 C.ar    1  UNL1       -0.0568
     22 C          -2.1571    0.1191    1.8493 C.ar    1  UNL1       -0.0614
     23 C          -2.2367    0.8656    0.6878 C.ar    1  UNL1       -0.0600
     24 C          -1.0874    1.3684    0.1083 C.ar    1  UNL1       -0.0400
     25 C           0.1441    1.1222    0.6972 C.ar    1  UNL1        0.0400
     26 N           1.3168    1.6509    0.1400 N.am    1  UNL1       -0.2611
     27 C           2.1740    2.3113    0.9404 C.2     1  UNL1        0.2683
     28 O           3.2327    2.7049    0.4987 O.2     1  UNL1       -0.2690
     29 C           1.6040    1.4876   -1.2873 C.3     1  UNL1        0.0593
     30 C           2.3821    0.2149   -1.5007 C.2     1  UNL1        0.0594
     31 O           2.6676   -0.4841   -0.5574 O.co2   1  UNL1       -0.5482
     32 H          -1.6214    7.5557    5.4109 H       1  UNL1        0.0262
     33 H          -2.6652    7.9271    4.0177 H       1  UNL1        0.0262
     34 H          -2.6129    6.2737    4.6750 H       1  UNL1        0.0262
     35 H          -0.2930    7.7262    3.3240 H       1  UNL1        0.0694
     36 H          -1.2846    6.4442    2.5881 H       1  UNL1        0.0694
     37 H           3.6304    5.6925    4.2883 H       1  UNL1        0.0329
     38 H           2.4882    5.6309    5.6521 H       1  UNL1        0.0329
     39 H           3.2266    3.3202    6.1661 H       1  UNL1        0.0315
     40 H           4.3689    3.3819    4.8024 H       1  UNL1        0.0315
     41 H           6.3563    4.7685    4.9081 H       1  UNL1        0.0620
     42 H           8.0223    5.8638    6.3530 H       1  UNL1        0.0618
     43 H           7.4889    6.3324    8.7108 H       1  UNL1        0.0618
     44 H           5.2856    5.7157    9.6207 H       1  UNL1        0.0618
     45 H           3.6158    4.6298    8.1730 H       1  UNL1        0.0620
     46 H           1.5552    1.4021    4.1738 H       1  UNL1        0.0328
     47 H           3.1479    1.2089    3.4033 H       1  UNL1        0.0328
     48 H           1.4738   -0.7537    3.1702 H       1  UNL1        0.0316
     49 H           2.2758   -0.1840    1.6885 H       1  UNL1        0.0316
     50 H          -0.8707   -0.7189    3.3381 H       1  UNL1        0.0621
     51 H          -3.0576   -0.2684    2.3026 H       1  UNL1        0.0618
     52 H          -3.1979    1.0561    0.2335 H       1  UNL1        0.0618
     53 H          -1.1474    1.9467   -0.8018 H       1  UNL1        0.0636
     54 H           0.6676    1.4385   -1.8430 H       1  UNL1        0.0530
     55 H           2.1912    2.3358   -1.6391 H       1  UNL1        0.0530
     56 N           2.6527    3.6707    2.8892 N.4     1  UNL1        0.2459
     57 H           3.5443    3.2955    3.2334 H       1  UNL1        0.2030
     58 H           2.8324    4.3366    2.1286 H       1  UNL1        0.2030
     59 O           2.7582   -0.1423   -2.7388 O.co2   1  UNL1       -0.5482
@<TRIPOS>UNITY_ATOM_ATTR
56 1
charge 1
59 1
charge -1
@<TRIPOS>BOND
     1     1     2    1
     2     1    32    1
     3     1    33    1
     4     1    34    1
     5     2     3    1
     6     2    35    1
     7     2    36    1
     8     3     4    1
     9     4     5    2
    10     4     6    1
    11     6     7    1
    12     6     8    1
    13     6    56    1
    14     8     9    1
    15     8    37    1
    16     8    38    1
    17     9    10    1
    18     9    39    1
    19     9    40    1
    20    10    15   ar
    21    10    11   ar
    22    11    12   ar
    23    11    41    1
    24    12    13   ar
    25    12    42    1
    26    13    14   ar
    27    13    43    1
    28    14    15   ar
    29    14    44    1
    30    15    45    1
    31    16    17    1
    32    16    27    1
    33    16    18    1
    34    16    56    1
    35    18    19    1
    36    18    46    1
    37    18    47    1
    38    19    20    1
    39    19    48    1
    40    19    49    1
    41    20    25   ar
    42    20    21   ar
    43    21    22   ar
    44    21    50    1
    45    22    23   ar
    46    22    51    1
    47    23    24   ar
    48    23    52    1
    49    24    25   ar
    50    24    53    1
    51    25    26    1
    52    26    27   am
    53    26    29    1
    54    27    28    2
    55    29    30    1
    56    29    54    1
    57    29    55    1
    58    30    31   ar
    59    30    59   ar
    60    56    57    1
    61    56    58    1
