@<TRIPOS>MOLECULE
ZINC04198846
 96 102 0 0 0
SMALL
GASTEIGER

@<TRIPOS>ATOM
      1 C          -3.5037   12.2779    0.9890 C.3     1  UNL1       -0.0409
      2 N          -4.5888   11.3412    0.6679 N.4     1  UNL1        0.2449
      3 C          -5.6732   11.5144    1.6336 C.3     1  UNL1       -0.0259
      4 C          -6.9023   10.7679    1.1102 C.3     1  UNL1        0.0133
      5 C          -6.5070    9.3340    0.8360 C.ar    1  UNL1       -0.0302
      6 C          -7.5059    8.3760    0.7942 C.ar    1  UNL1       -0.0125
      7 C          -7.1954    7.0539    0.5333 C.ar    1  UNL1        0.1624
      8 C          -5.8667    6.6796    0.3086 C.ar    1  UNL1        0.1704
      9 C          -4.8733    7.6428    0.3921 C.ar    1  UNL1       -0.0069
     10 C          -5.1891    8.9757    0.6405 C.ar    1  UNL1        0.0076
     11 C          -4.0652    9.9694    0.6975 C.3     1  UNL1        0.0107
     12 H          -3.4892    9.8250    1.6090 H       1  UNL1        0.0908
     13 C          -3.1560    9.8045   -0.5106 C.3     1  UNL1        0.0200
     14 C          -2.2695    8.6016   -0.4192 C.ar    1  UNL1       -0.0415
     15 C          -2.1361    7.8663    0.7368 C.ar    1  UNL1       -0.0549
     16 C          -1.3284    6.7405    0.7547 C.ar    1  UNL1       -0.0191
     17 C          -0.6641    6.3479   -0.3910 C.ar    1  UNL1        0.1286
     18 C          -0.7617    7.1267   -1.5473 C.ar    1  UNL1       -0.0191
     19 C          -1.5615    8.2383   -1.5597 C.ar    1  UNL1       -0.0549
     20 O           0.0702    5.2272   -0.4764 O.3     1  UNL1       -0.4517
     21 C           0.9799    4.7335    0.3645 C.ar    1  UNL1        0.1822
     22 C           0.7000    3.5445    1.0422 C.ar    1  UNL1        0.0499
     23 C           1.6762    2.9129    1.7837 C.ar    1  UNL1       -0.0266
     24 C           2.9055    3.5294    1.9592 C.ar    1  UNL1       -0.0122
     25 C           3.1680    4.7493    1.3595 C.ar    1  UNL1        0.1655
     26 C           2.2091    5.3561    0.5554 C.ar    1  UNL1        0.2046
     27 O           2.4715    6.5512   -0.0403 O.3     1  UNL1       -0.4885
     28 C           2.1302    7.7299    0.6920 C.3     1  UNL1        0.0791
     29 O           4.3685    5.3569    1.5575 O.3     1  UNL1       -0.4913
     30 C           5.3082    4.6796    2.3944 C.3     1  UNL1        0.0790
     31 C           1.4284    1.5790    2.4304 C.3     1  UNL1        0.0135
     32 C          -0.0664    1.2827    2.5134 C.3     1  UNL1       -0.0259
     33 N          -0.7003    1.5596    1.2166 N.4     1  UNL1        0.2450
     34 C          -0.7085    3.0076    0.9864 C.3     1  UNL1        0.0143
     35 H          -1.1333    3.2218    0.0050 H       1  UNL1        0.0909
     36 C          -1.5325    3.6934    2.0709 C.3     1  UNL1        0.0202
     37 C          -3.0018    3.5980    1.7633 C.ar    1  UNL1       -0.0380
     38 C          -3.7210    2.5011    2.2009 C.ar    1  UNL1       -0.0547
     39 C          -5.0667    2.4009    1.9301 C.ar    1  UNL1       -0.0160
     40 C          -5.7003    3.3920    1.1951 C.ar    1  UNL1        0.1621
     41 C          -4.9711    4.4861    0.7226 C.ar    1  UNL1        0.1702
     42 C          -3.6286    4.5969    1.0396 C.ar    1  UNL1       -0.0123
     43 O          -5.5819    5.4120   -0.0424 O.3     1  UNL1       -0.4487
     44 O          -7.0316    3.2985    0.9340 O.3     1  UNL1       -0.4914
     45 C          -7.7146    2.1533    1.4476 C.3     1  UNL1        0.0790
     46 C           0.0576    0.8960    0.1473 C.3     1  UNL1       -0.0409
     47 C          -2.0802    1.0559    1.2265 C.3     1  UNL1       -0.0409
     48 O          -8.1816    6.1183    0.4947 O.3     1  UNL1       -0.4914
     49 C          -9.5157    6.5716    0.7329 C.3     1  UNL1        0.0790
     50 C          -5.0931   11.6351   -0.6802 C.3     1  UNL1       -0.0409
     51 H          -2.7052   12.1746    0.2543 H       1  UNL1        0.0778
     52 H          -3.8865   13.2982    0.9685 H       1  UNL1        0.0778
     53 H          -3.1142   12.0558    1.9826 H       1  UNL1        0.0778
     54 H          -5.9047   12.5743    1.7399 H       1  UNL1        0.0818
     55 H          -5.3779   11.1043    2.5994 H       1  UNL1        0.0818
     56 H          -7.2511   11.2351    0.1892 H       1  UNL1        0.0365
     57 H          -7.6949   10.7937    1.8580 H       1  UNL1        0.0365
     58 H          -8.5328    8.6629    0.9660 H       1  UNL1        0.0658
     59 H          -3.8404    7.3555    0.2619 H       1  UNL1        0.0660
     60 H          -2.5320   10.6934   -0.6036 H       1  UNL1        0.0372
     61 H          -3.7734    9.7176   -1.4047 H       1  UNL1        0.0372
     62 H          -2.6614    8.1675    1.6311 H       1  UNL1        0.0621
     63 H          -1.2179    6.1699    1.6650 H       1  UNL1        0.0654
     64 H          -0.2058    6.8520   -2.4315 H       1  UNL1        0.0654
     65 H          -1.6423    8.8342   -2.4568 H       1  UNL1        0.0621
     66 H           3.6623    3.0556    2.5669 H       1  UNL1        0.0658
     67 H           1.0596    7.7333    0.8966 H       1  UNL1        0.0660
     68 H           2.6800    7.7448    1.6331 H       1  UNL1        0.0660
     69 H           2.3908    8.6106    0.1050 H       1  UNL1        0.0660
     70 H           4.8799    4.5464    3.3879 H       1  UNL1        0.0660
     71 H           5.5404    3.7049    1.9652 H       1  UNL1        0.0660
     72 H           6.2209    5.2708    2.4685 H       1  UNL1        0.0660
     73 H           1.8492    1.5844    3.4359 H       1  UNL1        0.0365
     74 H           1.9162    0.8002    1.8442 H       1  UNL1        0.0365
     75 H          -0.5188    1.9119    3.2800 H       1  UNL1        0.0818
     76 H          -0.2145    0.2345    2.7731 H       1  UNL1        0.0818
     77 H          -1.2450    4.7431    2.1296 H       1  UNL1        0.0372
     78 H          -1.3341    3.2130    3.0291 H       1  UNL1        0.0372
     79 H          -3.2246    1.7197    2.7571 H       1  UNL1        0.0621
     80 H          -5.6287    1.5517    2.2898 H       1  UNL1        0.0655
     81 H          -3.0692    5.4642    0.7214 H       1  UNL1        0.0658
     82 H          -7.6273    2.1351    2.5340 H       1  UNL1        0.0660
     83 H          -8.7671    2.2025    1.1685 H       1  UNL1        0.0660
     84 H          -7.2704    1.2487    1.0322 H       1  UNL1        0.0660
     85 H           0.0684   -0.1796    0.3234 H       1  UNL1        0.0778
     86 H           1.0802    1.2732    0.1389 H       1  UNL1        0.0778
     87 H          -0.4136    1.1022   -0.8137 H       1  UNL1        0.0778
     88 H          -2.1386    0.1445    0.6316 H       1  UNL1        0.0778
     89 H          -2.3810    0.8405    2.2518 H       1  UNL1        0.0778
     90 H          -2.7449    1.8091    0.8035 H       1  UNL1        0.0778
     91 H         -10.2024    5.7273    0.6735 H       1  UNL1        0.0660
     92 H          -9.5755    7.0195    1.7248 H       1  UNL1        0.0660
     93 H          -9.7866    7.3139   -0.0179 H       1  UNL1        0.0660
     94 H          -5.8888   10.9338   -0.9314 H       1  UNL1        0.0778
     95 H          -5.4833   12.6525   -0.7084 H       1  UNL1        0.0778
     96 H          -4.2815   11.5371   -1.4011 H       1  UNL1        0.0778
@<TRIPOS>UNITY_ATOM_ATTR
2 1
charge 1
33 1
charge 1
@<TRIPOS>BOND
     1     1     2    1
     2     1    51    1
     3     1    52    1
     4     1    53    1
     5     2    11    1
     6     2     3    1
     7     2    50    1
     8     3     4    1
     9     3    54    1
    10     3    55    1
    11     4     5    1
    12     4    56    1
    13     4    57    1
    14     5    10   ar
    15     5     6   ar
    16     6     7   ar
    17     6    58    1
    18     7     8   ar
    19     7    48    1
    20     8    43    1
    21     8     9   ar
    22     9    10   ar
    23     9    59    1
    24    10    11    1
    25    11    12    1
    26    11    13    1
    27    13    14    1
    28    13    60    1
    29    13    61    1
    30    14    19   ar
    31    14    15   ar
    32    15    16   ar
    33    15    62    1
    34    16    17   ar
    35    16    63    1
    36    17    18   ar
    37    17    20    1
    38    18    19   ar
    39    18    64    1
    40    19    65    1
    41    20    21    1
    42    21    26   ar
    43    21    22   ar
    44    22    34    1
    45    22    23   ar
    46    23    24   ar
    47    23    31    1
    48    24    25   ar
    49    24    66    1
    50    25    26   ar
    51    25    29    1
    52    26    27    1
    53    27    28    1
    54    28    67    1
    55    28    68    1
    56    28    69    1
    57    29    30    1
    58    30    70    1
    59    30    71    1
    60    30    72    1
    61    31    32    1
    62    31    73    1
    63    31    74    1
    64    32    33    1
    65    32    75    1
    66    32    76    1
    67    33    34    1
    68    33    46    1
    69    33    47    1
    70    34    35    1
    71    34    36    1
    72    36    37    1
    73    36    77    1
    74    36    78    1
    75    37    42   ar
    76    37    38   ar
    77    38    39   ar
    78    38    79    1
    79    39    40   ar
    80    39    80    1
    81    40    41   ar
    82    40    44    1
    83    41    42   ar
    84    41    43    1
    85    42    81    1
    86    44    45    1
    87    45    82    1
    88    45    83    1
    89    45    84    1
    90    46    85    1
    91    46    86    1
    92    46    87    1
    93    47    88    1
    94    47    89    1
    95    47    90    1
    96    48    49    1
    97    49    91    1
    98    49    92    1
    99    49    93    1
   100    50    94    1
   101    50    95    1
   102    50    96    1
