@<TRIPOS>MOLECULE
ZINC03830995
 62 63 0 0 0
SMALL
GASTEIGER

@<TRIPOS>ATOM
      1 C          11.0541    6.5152    6.7970 C.3     1  UNL1       -0.0653
      2 C          10.9831    5.1838    6.0464 C.3     1  UNL1       -0.0555
      3 C           9.6010    5.0313    5.4081 C.3     1  UNL1       -0.0454
      4 C           9.5300    3.7000    4.6575 C.3     1  UNL1        0.0048
      5 H          10.3648    3.6135    3.9621 H       1  UNL1        0.0354
      6 C           8.1870    3.5815    3.9009 C.3     1  UNL1        0.0066
      7 C           7.8115    2.0907    4.0930 C.3     1  UNL1        0.0569
      8 H           8.3455    1.4643    3.3784 H       1  UNL1        0.0950
      9 C           9.5373    2.5230    5.6505 C.3     1  UNL1       -0.0283
     10 C           8.4311    0.3561    5.6852 C.3     1  UNL1       -0.0423
     11 C           6.3230    1.8957    3.9601 C.2     1  UNL1        0.2617
     12 O           5.6279    1.8394    4.9523 O.2     1  UNL1       -0.2696
     13 N           5.7644    1.7839    2.7387 N.am    1  UNL1       -0.3028
     14 C           4.3175    1.5943    2.6095 C.3     1  UNL1        0.0776
     15 H           3.8067    2.1495    3.3962 H       1  UNL1        0.0550
     16 C           3.8562    2.1051    1.2430 C.3     1  UNL1        0.1091
     17 H           4.3978    1.5795    0.4565 H       1  UNL1        0.0643
     18 C           4.1347    3.6068    1.1387 C.3     1  UNL1        0.1115
     19 H           5.2081    3.7839    1.2072 H       1  UNL1        0.0647
     20 C           3.6158    4.1221   -0.2073 C.3     1  UNL1        0.1125
     21 H           4.1590    3.6376   -1.0186 H       1  UNL1        0.0647
     22 C           2.1233    3.7981   -0.3245 C.3     1  UNL1        0.1188
     23 H           1.7581    4.1120   -1.3024 H       1  UNL1        0.0655
     24 C           1.9225    2.2890   -0.1637 C.3     1  UNL1        0.1327
     25 H           2.4386    1.7658   -0.9686 H       1  UNL1        0.0740
     26 O           2.4544    1.8705    1.0949 O.3     1  UNL1       -0.3556
     27 S           0.1511    1.9039   -0.2300 S.3     1  UNL1       -0.1305
     28 C           0.0938    0.0915   -0.1800 C.3     1  UNL1       -0.0156
     29 O           1.4019    4.4876    0.6984 O.3     1  UNL1       -0.3857
     30 O           3.8053    5.5365   -0.2829 O.3     1  UNL1       -0.3865
     31 O           3.4689    4.2922    2.2012 O.3     1  UNL1       -0.3865
     32 C           3.9847    0.1064    2.7367 C.3     1  UNL1        0.0732
     33 H           2.9236   -0.0467    2.5400 H       1  UNL1        0.0610
     34 C           4.8110   -0.6894    1.7243 C.3     1  UNL1       -0.0371
     35 O           4.2933   -0.3394    4.0589 O.3     1  UNL1       -0.3901
     36 H          12.0387    6.6238    7.2517 H       1  UNL1        0.0230
     37 H          10.8836    7.3351    6.0994 H       1  UNL1        0.0230
     38 H          10.2905    6.5350    7.5746 H       1  UNL1        0.0230
     39 H          11.1536    4.3639    6.7440 H       1  UNL1        0.0263
     40 H          11.7466    5.1640    5.2687 H       1  UNL1        0.0263
     41 H           9.4304    5.8513    4.7105 H       1  UNL1        0.0270
     42 H           8.8374    5.0512    6.1857 H       1  UNL1        0.0270
     43 H           8.3180    3.8132    2.8439 H       1  UNL1        0.0329
     44 H           7.4336    4.2298    4.3485 H       1  UNL1        0.0329
     45 H          10.3697    1.8552    5.4286 H       1  UNL1        0.0817
     46 H           9.6241    2.8981    6.6702 H       1  UNL1        0.0817
     47 H           9.1819   -0.0214    4.9910 H       1  UNL1        0.0778
     48 H           8.7572    0.1714    6.7088 H       1  UNL1        0.0778
     49 H           7.4839   -0.1533    5.5082 H       1  UNL1        0.0778
     50 H           6.3205    1.8289    1.9451 H       1  UNL1        0.1493
     51 H          -0.9439   -0.2403   -0.2158 H       1  UNL1        0.0341
     52 H           0.6343   -0.3128   -1.0359 H       1  UNL1        0.0341
     53 H           0.5565   -0.2614    0.7416 H       1  UNL1        0.0341
     54 H           0.4489    4.3241    0.6861 H       1  UNL1        0.2100
     55 H           3.4922    5.9317   -1.1080 H       1  UNL1        0.2100
     56 H           3.5990    5.2503    2.1937 H       1  UNL1        0.2100
     57 H           5.8721   -0.5363    1.9210 H       1  UNL1        0.0255
     58 H           4.5739   -1.7494    1.8150 H       1  UNL1        0.0255
     59 H           4.5756   -0.3494    0.7158 H       1  UNL1        0.0255
     60 H           3.7439    0.0603    4.7469 H       1  UNL1        0.2098
     61 N           8.2623    1.8253    5.4682 N.4     1  UNL1        0.2420
     62 H           7.5712    2.1866    6.1360 H       1  UNL1        0.2039
@<TRIPOS>UNITY_ATOM_ATTR
61 1
charge 1
@<TRIPOS>BOND
     1     1     2    1
     2     1    36    1
     3     1    37    1
     4     1    38    1
     5     2     3    1
     6     2    39    1
     7     2    40    1
     8     3     4    1
     9     3    41    1
    10     3    42    1
    11     4     5    1
    12     4     9    1
    13     4     6    1
    14     6     7    1
    15     6    43    1
    16     6    44    1
    17     7     8    1
    18     7    11    1
    19     7    61    1
    20     9    45    1
    21     9    46    1
    22     9    61    1
    23    10    47    1
    24    10    48    1
    25    10    49    1
    26    10    61    1
    27    11    12    2
    28    11    13   am
    29    13    14    1
    30    13    50    1
    31    14    15    1
    32    14    16    1
    33    14    32    1
    34    16    17    1
    35    16    26    1
    36    16    18    1
    37    18    19    1
    38    18    20    1
    39    18    31    1
    40    20    21    1
    41    20    22    1
    42    20    30    1
    43    22    23    1
    44    22    24    1
    45    22    29    1
    46    24    25    1
    47    24    26    1
    48    24    27    1
    49    27    28    1
    50    28    51    1
    51    28    52    1
    52    28    53    1
    53    29    54    1
    54    30    55    1
    55    31    56    1
    56    32    33    1
    57    32    34    1
    58    32    35    1
    59    34    57    1
    60    34    58    1
    61    34    59    1
    62    35    60    1
    63    61    62    1
