@<TRIPOS>MOLECULE
ZINC05620508
 26 26 0 0 0
SMALL
GASTEIGER

@<TRIPOS>ATOM
      1 C          -1.4314   -0.5342    0.0735 C.3     1  UNL1        0.0730
      2 C           0.0021   -0.0041    0.0020 C.3     1  UNL1        0.1132
      3 H           0.4747   -0.3562   -0.9149 H       1  UNL1        0.0647
      4 C          -0.0187    1.5267    0.0104 C.3     1  UNL1        0.1147
      5 H          -0.5443    1.8887   -0.8732 H       1  UNL1        0.0648
      6 C           1.4212    2.0492   -0.0005 C.3     1  UNL1        0.1304
      7 H           1.4147    3.1373    0.0619 H       1  UNL1        0.0679
      8 C           2.1715    1.4713    1.2034 C.3     1  UNL1        0.0565
      9 H           3.2123    1.7937    1.1730 H       1  UNL1        0.0927
     10 C           2.1077   -0.0573    1.1489 C.3     1  UNL1        0.2030
     11 H           2.6033   -0.4733    2.0261 H       1  UNL1        0.0968
     12 O           0.7413   -0.4753    1.1306 O.3     1  UNL1       -0.3383
     13 O           2.7635   -0.5200   -0.0333 O.3     1  UNL1       -0.3627
     14 O           2.0684    1.6417   -1.2076 O.3     1  UNL1       -0.3834
     15 O          -0.6854    1.9888    1.1869 O.3     1  UNL1       -0.3864
     16 O          -1.4196   -1.9577   -0.0515 O.3     1  UNL1       -0.3924
     17 H          -1.8739   -0.2571    1.0303 H       1  UNL1        0.0584
     18 H          -2.0190   -0.1031   -0.7371 H       1  UNL1        0.0584
     19 H           2.7608   -1.4818   -0.1338 H       1  UNL1        0.2127
     20 H           2.0226    1.5725    3.2543 H       1  UNL1        0.2000
     21 H           1.5192    2.9529    2.4753 H       1  UNL1        0.2000
     22 H           2.9857    1.9387   -1.2817 H       1  UNL1        0.2102
     23 H          -1.6024    1.6910    1.2619 H       1  UNL1        0.2100
     24 H          -2.2968   -2.3630   -0.0149 H       1  UNL1        0.2095
     25 N           1.5239    1.9348    2.4433 N.4     1  UNL1        0.2263
     26 H           0.5555    1.5943    2.4659 H       1  UNL1        0.2000
@<TRIPOS>UNITY_ATOM_ATTR
25 1
charge 1
@<TRIPOS>BOND
     1     1     2    1
     2     1    16    1
     3     1    17    1
     4     1    18    1
     5     2     3    1
     6     2    12    1
     7     2     4    1
     8     4     5    1
     9     4     6    1
    10     4    15    1
    11     6     7    1
    12     6     8    1
    13     6    14    1
    14     8     9    1
    15     8    10    1
    16     8    25    1
    17    10    11    1
    18    10    12    1
    19    10    13    1
    20    13    19    1
    21    14    22    1
    22    15    23    1
    23    16    24    1
    24    20    25    1
    25    21    25    1
    26    25    26    1
