@<TRIPOS>MOLECULE
ZINC03830552
 57 60 0 0 0
SMALL
GASTEIGER

@<TRIPOS>ATOM
      1 C          -0.3385    2.5601   -0.9963 C.3     1  UNL1       -0.0312
      2 C          -0.8726    2.7707    0.4220 C.3     1  UNL1        0.0972
      3 C           0.1607    2.3131    1.4170 C.ar    1  UNL1        0.0168
      4 C           1.0500    3.2207    1.9556 C.ar    1  UNL1        0.0478
      5 C           2.0100    2.8027    2.8636 C.ar    1  UNL1       -0.0395
      6 C           2.0877    1.4757    3.2389 C.ar    1  UNL1       -0.0181
      7 C           1.1994    0.5512    2.7101 C.ar    1  UNL1        0.1281
      8 C           0.2250    0.9717    1.7965 C.ar    1  UNL1        0.0707
      9 C          -0.7408    0.0044    1.2377 C.2     1  UNL1        0.1967
     10 O          -0.5694   -1.1934    1.3760 O.2     1  UNL1       -0.2867
     11 C          -1.8787    0.4991    0.5333 C.2     1  UNL1        0.0466
     12 C          -2.6458   -0.3643   -0.1366 C.2     1  UNL1        0.1409
     13 C          -3.8832    0.0246   -0.9000 C.3     1  UNL1        0.1935
     14 C          -4.3507    1.4019   -0.4257 C.3     1  UNL1        0.0531
     15 H          -4.6773    1.3128    0.6104 H       1  UNL1        0.0397
     16 C          -3.1740    2.3728   -0.4735 C.3     1  UNL1       -0.0311
     17 C          -2.1654    1.9761    0.5989 C.3     1  UNL1        0.0244
     18 H          -2.6033    2.2141    1.5683 H       1  UNL1        0.0382
     19 C          -5.5285    1.9014   -1.2406 C.3     1  UNL1        0.0441
     20 H          -5.7214    2.9426   -0.9823 H       1  UNL1        0.0939
     21 C          -5.2765    1.8062   -2.7156 C.2     1  UNL1        0.1579
     22 C          -4.3305    0.9634   -3.2438 C.2     1  UNL1        0.1248
     23 C          -3.5065    0.1245   -2.3663 C.2     1  UNL1        0.2108
     24 O          -2.5383   -0.4670   -2.7975 O.2     1  UNL1       -0.2882
     25 C          -4.1476    0.8900   -4.7022 C.2     1  UNL1        0.2485
     26 O          -4.6302   -0.0333   -5.3299 O.2     1  UNL1       -0.2702
     27 N          -3.4454    1.8459   -5.3422 N.am    1  UNL1       -0.3252
     28 O          -6.0002    2.5701   -3.5472 O.2     1  UNL1       -0.5050
     29 C          -7.1205    1.3182    0.4880 C.3     1  UNL1       -0.0427
     30 C          -7.8203    1.3874   -1.8289 C.3     1  UNL1       -0.0427
     31 O          -4.9142   -0.9468   -0.7120 O.3     1  UNL1       -0.3731
     32 O          -2.2903   -1.6645   -0.1284 O.2     1  UNL1       -0.5073
     33 O           1.2744   -0.7535    3.0755 O.3     1  UNL1       -0.5060
     34 CL          0.9662    4.8919    1.4935 Cl      1  UNL1       -0.0831
     35 O          -1.1426    4.1592    0.6247 O.3     1  UNL1       -0.3836
     36 H          -0.1265    1.5023   -1.1513 H       1  UNL1        0.0261
     37 H           0.5764    3.1374   -1.1293 H       1  UNL1        0.0261
     38 H          -1.0850    2.8908   -1.7184 H       1  UNL1        0.0261
     39 H           2.7015    3.5195    3.2811 H       1  UNL1        0.0633
     40 H           2.8411    1.1578    3.9444 H       1  UNL1        0.0655
     41 H          -2.6908    2.3172   -1.4490 H       1  UNL1        0.0278
     42 H          -3.5276    3.3882   -0.2950 H       1  UNL1        0.0278
     43 H          -3.0052    2.5459   -4.8351 H       1  UNL1        0.1453
     44 H          -3.3801    1.8338   -6.3099 H       1  UNL1        0.1453
     45 H          -5.7184    2.3953   -4.4906 H       1  UNL1        0.2919
     46 H          -7.2428    2.3862    0.6680 H       1  UNL1        0.0778
     47 H          -8.0652    0.8076    0.6749 H       1  UNL1        0.0778
     48 H          -6.3553    0.9225    1.1558 H       1  UNL1        0.0778
     49 H          -7.5552    1.0499   -2.8309 H       1  UNL1        0.0778
     50 H          -8.7167    0.8649   -1.4948 H       1  UNL1        0.0778
     51 H          -8.0103    2.4606   -1.8454 H       1  UNL1        0.0778
     52 H          -4.6548   -1.8470   -0.9515 H       1  UNL1        0.2113
     53 H          -2.9479   -2.1932   -0.6651 H       1  UNL1        0.2918
     54 H           1.8545   -1.2863    2.5146 H       1  UNL1        0.2922
     55 H          -1.7328    4.5458   -0.0366 H       1  UNL1        0.2106
     56 N          -6.7066    1.0725   -0.9095 N.4     1  UNL1        0.2388
     57 H          -6.4576    0.0819   -1.0143 H       1  UNL1        0.2035
@<TRIPOS>UNITY_ATOM_ATTR
56 1
charge 1
@<TRIPOS>BOND
     1     1     2    1
     2     1    36    1
     3     1    37    1
     4     1    38    1
     5     2    17    1
     6     2     3    1
     7     2    35    1
     8     3     8   ar
     9     3     4   ar
    10     4     5   ar
    11     4    34    1
    12     5     6   ar
    13     5    39    1
    14     6     7   ar
    15     6    40    1
    16     7     8   ar
    17     7    33    1
    18     8     9    1
    19     9    10    2
    20     9    11    1
    21    11    17    1
    22    11    12    2
    23    12    13    1
    24    12    32    1
    25    13    23    1
    26    13    14    1
    27    13    31    1
    28    14    15    1
    29    14    16    1
    30    14    19    1
    31    16    17    1
    32    16    41    1
    33    16    42    1
    34    17    18    1
    35    19    20    1
    36    19    21    1
    37    19    56    1
    38    21    22    2
    39    21    28    1
    40    22    23    1
    41    22    25    1
    42    23    24    2
    43    25    26    2
    44    25    27   am
    45    27    43    1
    46    27    44    1
    47    28    45    1
    48    29    46    1
    49    29    47    1
    50    29    48    1
    51    29    56    1
    52    30    49    1
    53    30    50    1
    54    30    51    1
    55    30    56    1
    56    31    52    1
    57    32    53    1
    58    33    54    1
    59    35    55    1
    60    56    57    1
