@<TRIPOS>MOLECULE
ZINC01482197
 22 23 0 0 0
SMALL
GASTEIGER

@<TRIPOS>ATOM
      1 C          -3.9729   -0.7269    2.7749 C.ar    1  UNL1       -0.0617
      2 C          -3.2091    0.1660    3.5030 C.ar    1  UNL1       -0.0615
      3 C          -2.2910    0.9751    2.8600 C.ar    1  UNL1       -0.0581
      4 C          -2.1364    0.8909    1.4889 C.ar    1  UNL1       -0.0388
      5 C          -2.9040    0.0016    0.7601 C.ar    1  UNL1       -0.0581
      6 C          -3.8193   -0.8101    1.4036 C.ar    1  UNL1       -0.0615
      7 C          -1.1356    1.7728    0.7878 C.3     1  UNL1        0.0321
      8 H          -0.8975    2.7084    1.2938 H       1  UNL1        0.0406
      9 C          -1.1502    1.7810   -0.7428 C.3     1  UNL1        0.0027
     10 C          -0.0127    1.0858    0.0080 C.3     1  UNL1       -0.0165
     11 H           0.0021   -0.0041    0.0020 H       1  UNL1        0.0856
     12 H          -4.6899   -1.3592    3.2773 H       1  UNL1        0.0618
     13 H          -3.3293    0.2313    4.5743 H       1  UNL1        0.0618
     14 H          -1.6942    1.6727    3.4288 H       1  UNL1        0.0620
     15 H          -2.7863   -0.0610   -0.3116 H       1  UNL1        0.0620
     16 H          -4.4163   -1.5075    0.8347 H       1  UNL1        0.0618
     17 H          -0.9217    2.7221   -1.2432 H       1  UNL1        0.0328
     18 H          -1.8835    1.1485   -1.2431 H       1  UNL1        0.0328
     19 H           1.9675    1.2041   -0.5427 H       1  UNL1        0.1997
     20 H           1.2363    2.6844   -0.3426 H       1  UNL1        0.1997
     21 N           1.3093    1.7367    0.0237 N.4     1  UNL1        0.2212
     22 H           1.6544    1.7766    0.9898 H       1  UNL1        0.1997
@<TRIPOS>UNITY_ATOM_ATTR
21 1
charge 1
@<TRIPOS>BOND
     1     1     6   ar
     2     1     2   ar
     3     1    12    1
     4     2     3   ar
     5     2    13    1
     6     3     4   ar
     7     3    14    1
     8     4     5   ar
     9     4     7    1
    10     5     6   ar
    11     5    15    1
    12     6    16    1
    13     7     8    1
    14     7    10    1
    15     7     9    1
    16     9    10    1
    17     9    17    1
    18     9    18    1
    19    10    11    1
    20    10    21    1
    21    19    21    1
    22    20    21    1
    23    21    22    1
