@<TRIPOS>MOLECULE
ZINC11592563
 56 57 0 0 0
SMALL
GASTEIGER

@<TRIPOS>ATOM
      1 C           2.1254    1.3676   -6.2511 C.3     1  UNL1       -0.0653
      2 C           1.3720    1.8019   -4.9923 C.3     1  UNL1       -0.0559
      3 C           2.0826    1.2475   -3.7559 C.3     1  UNL1       -0.0532
      4 C           1.3292    1.6819   -2.4971 C.3     1  UNL1       -0.0504
      5 C           2.0397    1.1274   -1.2607 C.3     1  UNL1       -0.0232
      6 C           1.2864    1.5618   -0.0018 C.3     1  UNL1        0.0734
      7 H           1.1856    2.6471    0.0050 H       1  UNL1        0.0637
      8 C           2.0519    1.1207    1.2190 C.2     1  UNL1       -0.0595
      9 C           2.4771    2.0098    2.0821 C.2     1  UNL1       -0.0796
     10 C           3.2426    1.5687    3.3029 C.3     1  UNL1        0.0099
     11 H           3.3309    0.4823    3.3131 H       1  UNL1        0.0372
     12 C           2.5244    2.0519    4.5744 C.3     1  UNL1        0.0652
     13 H           1.6387    2.6282    4.3071 H       1  UNL1        0.0600
     14 C           3.5271    2.9448    5.3319 C.3     1  UNL1        0.0112
     15 C           4.4990    3.4497    4.2439 C.3     1  UNL1        0.1059
     16 H           5.4498    3.8100    4.6367 H       1  UNL1        0.0736
     17 C           4.6446    2.2093    3.3032 C.3     1  UNL1        0.0115
     18 H           5.4432    1.5184    3.5734 H       1  UNL1        0.0347
     19 C           4.8538    2.9069    1.9361 C.3     1  UNL1        0.0114
     20 C           4.3413    4.3172    2.1513 C.2     1  UNL1        0.0946
     21 C           4.3831    5.2916    1.2662 C.2     1  UNL1       -0.0464
     22 C           3.8347    6.6510    1.6156 C.3     1  UNL1       -0.0310
     23 C           4.9145    7.7106    1.3874 C.3     1  UNL1       -0.0444
     24 C           4.3577    9.0909    1.7421 C.3     1  UNL1       -0.0129
     25 C           5.4214   10.1345    1.5174 C.2     1  UNL1        0.0418
     26 O           6.5127    9.8079    1.1148 O.co2   1  UNL1       -0.5498
     27 O           3.8310    4.4113    3.4100 O.2     1  UNL1       -0.4930
     28 O           2.1559    0.9334    5.3838 O.3     1  UNL1       -0.3911
     29 O          -0.0110    0.9628    0.0073 O.3     1  UNL1       -0.3878
     30 H           2.1488    0.2791   -6.3031 H       1  UNL1        0.0230
     31 H           1.6192    1.7626   -7.1319 H       1  UNL1        0.0230
     32 H           3.1449    1.7516   -6.2151 H       1  UNL1        0.0230
     33 H           0.3526    1.4179   -5.0283 H       1  UNL1        0.0263
     34 H           1.3486    2.8904   -4.9403 H       1  UNL1        0.0263
     35 H           3.1020    1.6315   -3.7199 H       1  UNL1        0.0265
     36 H           2.1060    0.1590   -3.8079 H       1  UNL1        0.0265
     37 H           0.3097    1.2978   -2.5330 H       1  UNL1        0.0266
     38 H           1.3058    2.7704   -2.4451 H       1  UNL1        0.0266
     39 H           3.0592    1.5115   -1.2247 H       1  UNL1        0.0293
     40 H           2.0631    0.0389   -1.3127 H       1  UNL1        0.0293
     41 H           2.2499    0.0717    1.3824 H       1  UNL1        0.0594
     42 H           2.2790    3.0588    1.9187 H       1  UNL1        0.0573
     43 H           4.0642    2.3626    6.0807 H       1  UNL1        0.0326
     44 H           3.0128    3.7836    5.8010 H       1  UNL1        0.0326
     45 H           5.9117    2.9219    1.6740 H       1  UNL1        0.0347
     46 H           4.2752    2.4056    1.1602 H       1  UNL1        0.0347
     47 H           4.8104    5.1163    0.2899 H       1  UNL1        0.0605
     48 H           2.9731    6.8685    0.9843 H       1  UNL1        0.0309
     49 H           3.5302    6.6620    2.6621 H       1  UNL1        0.0309
     50 H           5.7761    7.4932    2.0187 H       1  UNL1        0.0272
     51 H           5.2190    7.6997    0.3408 H       1  UNL1        0.0272
     52 H           3.4962    9.3083    1.1108 H       1  UNL1        0.0325
     53 H           4.0533    9.1018    2.7887 H       1  UNL1        0.0325
     54 H           1.6985    1.1732    6.2014 H       1  UNL1        0.2098
     55 H           0.0021   -0.0041    0.0020 H       1  UNL1        0.2102
     56 O           5.1563   11.4270    1.7645 O.co2   1  UNL1       -0.5498
@<TRIPOS>UNITY_ATOM_ATTR
56 1
charge -1
@<TRIPOS>BOND
     1     1     2    1
     2     1    30    1
     3     1    31    1
     4     1    32    1
     5     2     3    1
     6     2    33    1
     7     2    34    1
     8     3     4    1
     9     3    35    1
    10     3    36    1
    11     4     5    1
    12     4    37    1
    13     4    38    1
    14     5     6    1
    15     5    39    1
    16     5    40    1
    17     6     7    1
    18     6     8    1
    19     6    29    1
    20     8     9    2
    21     8    41    1
    22     9    10    1
    23     9    42    1
    24    10    11    1
    25    10    17    1
    26    10    12    1
    27    12    13    1
    28    12    14    1
    29    12    28    1
    30    14    15    1
    31    14    43    1
    32    14    44    1
    33    15    16    1
    34    15    27    1
    35    15    17    1
    36    17    18    1
    37    17    19    1
    38    19    20    1
    39    19    45    1
    40    19    46    1
    41    20    21    2
    42    20    27    1
    43    21    22    1
    44    21    47    1
    45    22    23    1
    46    22    48    1
    47    22    49    1
    48    23    24    1
    49    23    50    1
    50    23    51    1
    51    24    25    1
    52    24    52    1
    53    24    53    1
    54    25    26   ar
    55    25    56   ar
    56    28    54    1
    57    29    55    1
