@<TRIPOS>MOLECULE
ZINC02023647
 26 27 0 0 0
SMALL
GASTEIGER

@<TRIPOS>ATOM
      1 C           2.3968    1.4016   -0.0142 C.ar    1  UNL1       -0.0358
      2 C           2.4015    0.0203   -0.0208 C.ar    1  UNL1        0.0479
      3 C           1.2074   -0.6805   -0.0127 C.ar    1  UNL1        0.0333
      4 C           0.0021   -0.0041    0.0020 C.ar    1  UNL1        0.2676
      5 C          -0.0167    1.3811    0.0096 C.ar    1  UNL1       -0.0207
      6 C           1.1872    2.0922    0.0020 C.ar    1  UNL1       -0.0181
      7 C           1.1762    3.5750    0.0095 C.ar    1  UNL1       -0.0181
      8 C           1.6752    4.2838   -1.0809 C.ar    1  UNL1       -0.0358
      9 C           1.6579    5.6650   -1.0710 C.ar    1  UNL1        0.0479
     10 C           1.1562    6.3477    0.0241 C.ar    1  UNL1        0.0333
     11 C           0.6641    5.6531    1.1132 C.ar    1  UNL1        0.2676
     12 C           0.6703    4.2678    1.1137 C.ar    1  UNL1       -0.0207
     13 N           0.1294    6.3903    2.2800 N.pl3   1  UNL1        0.0790
     14 O           0.1236    7.6083    2.2803 O.2     1  UNL1        0.0414
     15 O          -0.3047    5.7790    3.2399 O.co2   1  UNL1       -0.5761
     16 CL          2.2738    6.5478   -2.4330 Cl      1  UNL1       -0.0833
     17 N          -1.2701   -0.7607    0.0101 N.pl3   1  UNL1        0.0790
     18 O          -1.2545   -1.9785    0.0034 O.2     1  UNL1        0.0414
     19 O          -2.3327   -0.1653    0.0234 O.co2   1  UNL1       -0.5761
     20 CL          3.9094   -0.8397   -0.0398 Cl      1  UNL1       -0.0833
     21 H           3.3298    1.9455   -0.0213 H       1  UNL1        0.0638
     22 H           1.2178   -1.7604   -0.0182 H       1  UNL1        0.0700
     23 H           2.0710    3.7541   -1.9348 H       1  UNL1        0.0638
     24 H           1.1495    7.4276    0.0276 H       1  UNL1        0.0700
     25 O           0.1859    3.5845    2.1836 O.co2   1  UNL1       -0.8690
     26 O          -1.2014    2.0466    0.0189 O.co2   1  UNL1       -0.8690
@<TRIPOS>UNITY_ATOM_ATTR
13 1
charge 1
15 1
charge -1
17 1
charge 1
19 1
charge -1
25 1
charge -1
26 1
charge -1
@<TRIPOS>BOND
     1     1     6   ar
     2     1     2   ar
     3     1    21    1
     4     2     3   ar
     5     2    20    1
     6     3     4   ar
     7     3    22    1
     8     4     5   ar
     9     4    17    1
    10     5     6   ar
    11     5    26    1
    12     6     7    1
    13     7    12   ar
    14     7     8   ar
    15     8     9   ar
    16     8    23    1
    17     9    10   ar
    18     9    16    1
    19    10    11   ar
    20    10    24    1
    21    11    12   ar
    22    11    13    1
    23    12    25    1
    24    13    14    2
    25    13    15    1
    26    17    18    2
    27    17    19    1
