@<TRIPOS>MOLECULE
ZINC00000570
 42 43 0 0 0
SMALL
GASTEIGER

@<TRIPOS>ATOM
      1 C          -0.3221   12.2071    1.0680 C.3     1  UNL1       -0.0219
      2 C           0.6259   11.4080    0.1715 C.3     1  UNL1       -0.0283
      3 C           2.0496   11.9463    0.3270 C.3     1  UNL1       -0.0219
      4 C          -0.5187    9.2911   -0.0950 C.3     1  UNL1       -0.0147
      5 C          -0.5209    7.8229    0.3355 C.3     1  UNL1        0.0608
      6 H          -0.7150    7.7515    1.4057 H       1  UNL1        0.0550
      7 C          -1.5994    7.0556   -0.4405 C.3     1  UNL1       -0.0256
      8 C          -1.6297    5.6098    0.0546 C.3     1  UNL1       -0.0241
      9 C          -0.2461    5.0156    0.0321 C.ar    1  UNL1       -0.0257
     10 C          -0.1087    3.6375    0.0169 C.ar    1  UNL1       -0.0450
     11 C           1.1470    3.0623    0.0076 C.ar    1  UNL1        0.0551
     12 C           2.2768    3.8601    0.0011 C.ar    1  UNL1        0.2802
     13 C           2.1489    5.2344    0.0084 C.ar    1  UNL1        0.0370
     14 C           0.8856    5.8158    0.0231 C.ar    1  UNL1        0.0372
     15 N           0.7778    7.2108    0.0234 N.pl3   1  UNL1       -0.3356
     16 N           3.6210    3.2410   -0.0133 N.pl3   1  UNL1        0.0800
     17 O           4.6154    3.9444   -0.0190 O.2     1  UNL1        0.0415
     18 O           3.7329    2.0282   -0.0194 O.co2   1  UNL1       -0.5760
     19 C           1.2864    1.5618   -0.0018 C.3     1  UNL1        0.0756
     20 O          -0.0110    0.9628    0.0073 O.3     1  UNL1       -0.3902
     21 H          -1.3364   11.8235    0.9573 H       1  UNL1        0.0284
     22 H          -0.0082   12.1094    2.1072 H       1  UNL1        0.0284
     23 H          -0.2972   13.2575    0.7781 H       1  UNL1        0.0284
     24 H           0.3120   11.5057   -0.8677 H       1  UNL1        0.0845
     25 H           2.7250   11.3771   -0.3117 H       1  UNL1        0.0284
     26 H           2.0745   12.9968    0.0371 H       1  UNL1        0.0284
     27 H           2.3636   11.8486    1.3662 H       1  UNL1        0.0284
     28 H          -0.3981    9.3524   -1.1765 H       1  UNL1        0.0832
     29 H          -1.4621    9.7554    0.1924 H       1  UNL1        0.0832
     30 H          -1.3650    7.0722   -1.5049 H       1  UNL1        0.0288
     31 H          -2.5710    7.5199   -0.2714 H       1  UNL1        0.0288
     32 H          -2.2839    5.0225   -0.5898 H       1  UNL1        0.0314
     33 H          -2.0144    5.5872    1.0742 H       1  UNL1        0.0314
     34 H          -0.9875    3.0097    0.0173 H       1  UNL1        0.0626
     35 H           3.0303    5.8585    0.0032 H       1  UNL1        0.0704
     36 H           1.5479    7.7648   -0.1787 H       1  UNL1        0.1466
     37 H           1.8401    1.2428    0.8812 H       1  UNL1        0.0609
     38 H           1.8231    1.2523   -0.8987 H       1  UNL1        0.0609
     39 H           0.0021   -0.0041    0.0020 H       1  UNL1        0.2099
     40 N           0.5992    9.9877    0.5689 N.4     1  UNL1        0.2301
     41 H           0.4819    9.9230    1.5869 H       1  UNL1        0.2017
     42 H           1.4842    9.5434    0.2975 H       1  UNL1        0.2017
@<TRIPOS>UNITY_ATOM_ATTR
16 1
charge 1
18 1
charge -1
40 1
charge 1
@<TRIPOS>BOND
     1     1     2    1
     2     1    21    1
     3     1    22    1
     4     1    23    1
     5     2     3    1
     6     2    24    1
     7     2    40    1
     8     3    25    1
     9     3    26    1
    10     3    27    1
    11     4     5    1
    12     4    28    1
    13     4    29    1
    14     4    40    1
    15     5     6    1
    16     5    15    1
    17     5     7    1
    18     7     8    1
    19     7    30    1
    20     7    31    1
    21     8     9    1
    22     8    32    1
    23     8    33    1
    24     9    14   ar
    25     9    10   ar
    26    10    11   ar
    27    10    34    1
    28    11    12   ar
    29    11    19    1
    30    12    13   ar
    31    12    16    1
    32    13    14   ar
    33    13    35    1
    34    14    15    1
    35    15    36    1
    36    16    17    2
    37    16    18    1
    38    19    20    1
    39    19    37    1
    40    19    38    1
    41    20    39    1
    42    40    41    1
    43    40    42    1
