@<TRIPOS>MOLECULE
ZINC11592728
 52 55 0 0 0
SMALL
GASTEIGER

@<TRIPOS>ATOM
      1 C          -3.2986   -0.2489    1.0159 C.3     1  UNL1       -0.0567
      2 C          -2.7822    1.1954    0.9503 C.3     1  UNL1       -0.0004
      3 C          -3.2198    1.8920   -0.3323 C.3     1  UNL1       -0.0445
      4 C          -2.4700    1.3952   -1.5548 C.3     1  UNL1       -0.0487
      5 C          -0.9587    1.4832   -1.4208 C.3     1  UNL1       -0.0292
      6 H          -0.5735    0.7338   -2.1824 H       1  UNL1        0.0310
      7 C          -0.4532    0.9719   -0.1018 C.3     1  UNL1       -0.0342
      8 H          -0.5332   -0.1553   -0.2000 H       1  UNL1        0.0306
      9 C          -1.2606    1.2599    1.1302 C.3     1  UNL1       -0.0298
     10 H          -1.0072    0.4466    1.8533 H       1  UNL1        0.0310
     11 C          -0.9314    2.5737    1.8400 C.3     1  UNL1       -0.0468
     12 C          -2.2837    3.1774    2.2800 C.3     1  UNL1       -0.0235
     13 C          -3.3027    2.0281    2.1531 C.3     1  UNL1        0.0689
     14 C          -4.7056    2.5702    1.9110 C.3     1  UNL1       -0.0356
     15 O          -3.2816    1.2302    3.3410 O.3     1  UNL1       -0.3883
     16 C           1.0368    1.1889    0.1319 C.3     1  UNL1       -0.0494
     17 C           1.5085    2.5705   -0.3012 C.3     1  UNL1       -0.0488
     18 C           1.1248    2.8141   -1.7566 C.3     1  UNL1       -0.0222
     19 H           1.5377    2.0054   -2.3726 H       1  UNL1        0.0312
     20 C          -0.4010    2.8085   -1.9022 C.3     1  UNL1        0.0085
     21 C          -0.7073    2.9650   -3.4076 C.3     1  UNL1        0.0983
     22 O          -0.1681    4.2427   -3.8486 O.3     1  UNL1       -0.4641
     23 C           1.1446    4.4454   -3.6192 C.2     1  UNL1        0.3074
     24 O           1.8664    4.8612   -4.4962 O.2     1  UNL1       -0.2508
     25 C           1.6963    4.1468   -2.2427 C.3     1  UNL1        0.0484
     26 C          -1.0117    4.0028   -1.1781 C.3     1  UNL1       -0.0559
     27 H          -2.8985   -0.8163    0.1756 H       1  UNL1        0.0236
     28 H          -2.9762   -0.7079    1.9506 H       1  UNL1        0.0236
     29 H          -4.3875   -0.2480    0.9682 H       1  UNL1        0.0236
     30 H          -3.1260    2.9683   -0.2334 H       1  UNL1        0.0272
     31 H          -4.2886    1.6704   -0.5014 H       1  UNL1        0.0272
     32 H          -2.7987    1.9683   -2.4314 H       1  UNL1        0.0268
     33 H          -2.7509    0.3479   -1.7461 H       1  UNL1        0.0268
     34 H          -0.3906    3.2661    1.2036 H       1  UNL1        0.0269
     35 H          -0.3175    2.3724    2.7322 H       1  UNL1        0.0269
     36 H          -2.5620    3.9998    1.6233 H       1  UNL1        0.0293
     37 H          -2.2279    3.5186    3.3120 H       1  UNL1        0.0293
     38 H          -5.3933    1.7399    1.7503 H       1  UNL1        0.0257
     39 H          -5.0274    3.1458    2.7789 H       1  UNL1        0.0257
     40 H          -4.6999    3.2129    1.0307 H       1  UNL1        0.0257
     41 H          -3.5952    1.6920    4.1306 H       1  UNL1        0.2102
     42 H           1.2575    1.0514    1.1974 H       1  UNL1        0.0268
     43 H           1.6004    0.4281   -0.4221 H       1  UNL1        0.0268
     44 H           1.1051    3.3421    0.3437 H       1  UNL1        0.0268
     45 H           2.6053    2.6076   -0.2204 H       1  UNL1        0.0268
     46 H          -0.2328    2.1538   -3.9535 H       1  UNL1        0.0703
     47 H          -1.7824    2.9493   -3.5607 H       1  UNL1        0.0703
     48 H           1.4495    4.9507   -1.5542 H       1  UNL1        0.0380
     49 H           2.7874    4.0677   -2.3073 H       1  UNL1        0.0380
     50 H          -0.7025    4.9240   -1.6719 H       1  UNL1        0.0236
     51 H          -2.0987    3.9251   -1.2017 H       1  UNL1        0.0236
     52 H          -0.6706    4.0133   -0.1429 H       1  UNL1        0.0236
@<TRIPOS>BOND
     1     1     2    1
     2     1    27    1
     3     1    28    1
     4     1    29    1
     5     2     9    1
     6     2    13    1
     7     2     3    1
     8     3     4    1
     9     3    30    1
    10     3    31    1
    11     4     5    1
    12     4    32    1
    13     4    33    1
    14     5     6    1
    15     5    20    1
    16     5     7    1
    17     7     8    1
    18     7     9    1
    19     7    16    1
    20     9    10    1
    21     9    11    1
    22    11    12    1
    23    11    34    1
    24    11    35    1
    25    12    13    1
    26    12    36    1
    27    12    37    1
    28    13    14    1
    29    13    15    1
    30    14    38    1
    31    14    39    1
    32    14    40    1
    33    15    41    1
    34    16    17    1
    35    16    42    1
    36    16    43    1
    37    17    18    1
    38    17    44    1
    39    17    45    1
    40    18    19    1
    41    18    25    1
    42    18    20    1
    43    20    21    1
    44    20    26    1
    45    21    22    1
    46    21    46    1
    47    21    47    1
    48    22    23    1
    49    23    24    2
    50    23    25    1
    51    25    48    1
    52    25    49    1
    53    26    50    1
    54    26    51    1
    55    26    52    1
