@<TRIPOS>MOLECULE
ZINC11616479
 62 65 0 0 0
SMALL
GASTEIGER

@<TRIPOS>ATOM
      1 C           3.4821    1.9648    5.7576 C.3     1  UNL1       -0.0621
      2 C           2.4933    2.3795    4.6661 C.3     1  UNL1       -0.0398
      3 H           2.8227    3.3149    4.2138 H       1  UNL1        0.0301
      4 C           1.1056    2.5712    5.2812 C.3     1  UNL1       -0.0451
      5 C           1.1404    3.7444    6.2627 C.3     1  UNL1       -0.0130
      6 C          -0.2264    3.9333    6.8685 C.2     1  UNL1        0.0418
      7 O          -1.1352    3.2043    6.5481 O.co2   1  UNL1       -0.5498
      8 C           2.4300    1.2894    3.5944 C.3     1  UNL1       -0.0261
      9 H           2.0910    0.3499    4.0310 H       1  UNL1        0.0313
     10 C           3.8200    1.1044    2.9321 C.3     1  UNL1       -0.0488
     11 C           3.6110    1.3277    1.4074 C.3     1  UNL1       -0.0484
     12 C           2.1268    1.0107    1.2227 C.3     1  UNL1       -0.0189
     13 H           1.9682   -0.0664    1.2742 H       1  UNL1        0.0317
     14 C           1.4921    1.6999    2.4638 C.3     1  UNL1        0.0327
     15 C           0.0741    1.2192    2.5141 C.2     1  UNL1        0.1400
     16 O          -0.3789    0.6378    3.4707 O.2     1  UNL1       -0.2968
     17 C          -0.7606    1.5349    1.2625 C.3     1  UNL1        0.0104
     18 C          -0.0127    1.0858    0.0080 C.3     1  UNL1       -0.0189
     19 H           0.0021   -0.0041    0.0020 H       1  UNL1        0.0317
     20 C           1.4410    1.5743   -0.0032 C.3     1  UNL1        0.0249
     21 H           1.4815    2.5732    0.0219 H       1  UNL1        0.0383
     22 C           2.1261    1.0621   -1.2520 C.2     1  UNL1        0.1373
     23 O           3.2873    0.7306   -1.2404 O.2     1  UNL1       -0.2971
     24 C           1.2948    0.9815   -2.5190 C.3     1  UNL1        0.0098
     25 C           0.1540    1.9834   -2.3521 C.3     1  UNL1       -0.0220
     26 H           0.5678    2.9597   -2.0999 H       1  UNL1        0.0314
     27 C          -0.7693    1.5441   -1.2213 C.3     1  UNL1       -0.0242
     28 C          -1.7667    2.6563   -0.9116 C.3     1  UNL1       -0.0404
     29 C          -2.6599    2.8736   -2.1409 C.3     1  UNL1        0.0063
     30 C          -1.7906    3.0887   -3.3587 C.2     1  UNL1        0.1337
     31 O          -1.9825    4.0268   -4.0946 O.2     1  UNL1       -0.2974
     32 C          -0.6714    2.1021   -3.6376 C.3     1  UNL1        0.0095
     33 C          -1.6018    0.3605   -1.7180 C.3     1  UNL1       -0.0590
     34 C           1.5320    3.2199    2.2937 C.3     1  UNL1       -0.0523
     35 H           3.5272    2.7414    6.5211 H       1  UNL1        0.0233
     36 H           3.1527    1.0294    6.2099 H       1  UNL1        0.0233
     37 H           4.4707    1.8282    5.3194 H       1  UNL1        0.0233
     38 H           0.3838    2.7796    4.4914 H       1  UNL1        0.0271
     39 H           0.8139    1.6637    5.8099 H       1  UNL1        0.0271
     40 H           1.8622    3.5361    7.0524 H       1  UNL1        0.0325
     41 H           1.4321    4.6519    5.7340 H       1  UNL1        0.0325
     42 H           4.1907    0.0959    3.1153 H       1  UNL1        0.0268
     43 H           4.5227    1.8392    3.3251 H       1  UNL1        0.0268
     44 H           4.2280    0.6409    0.8279 H       1  UNL1        0.0268
     45 H           3.8227    2.3610    1.1324 H       1  UNL1        0.0268
     46 H          -0.9261    2.5198    1.2119 H       1  UNL1        0.0345
     47 H          -1.7131    1.0082    1.3199 H       1  UNL1        0.0345
     48 H           1.8657    1.2106   -3.3074 H       1  UNL1        0.0345
     49 H           0.8954   -0.0254   -2.6404 H       1  UNL1        0.0345
     50 H          -1.2290    3.5765   -0.6833 H       1  UNL1        0.0275
     51 H          -2.3819    2.3687   -0.0590 H       1  UNL1        0.0275
     52 H          -3.2373    3.6770   -1.9955 H       1  UNL1        0.0342
     53 H          -3.2893    1.9968   -2.2934 H       1  UNL1        0.0342
     54 H          -0.0864    2.4274   -4.3805 H       1  UNL1        0.0345
     55 H          -1.0883    1.1305   -3.9027 H       1  UNL1        0.0345
     56 H          -2.2964    0.0516   -0.9369 H       1  UNL1        0.0235
     57 H          -2.1612    0.6566   -2.6054 H       1  UNL1        0.0235
     58 H          -0.9408   -0.4701   -1.9657 H       1  UNL1        0.0235
     59 H           0.9722    3.5005    1.4015 H       1  UNL1        0.0239
     60 H           1.0856    3.6950    3.1672 H       1  UNL1        0.0239
     61 H           2.5668    3.5469    2.1912 H       1  UNL1        0.0239
     62 O          -0.4343    4.9113    7.7641 O.co2   1  UNL1       -0.5498
@<TRIPOS>UNITY_ATOM_ATTR
62 1
charge -1
@<TRIPOS>BOND
     1     1     2    1
     2     1    35    1
     3     1    36    1
     4     1    37    1
     5     2     3    1
     6     2     4    1
     7     2     8    1
     8     4     5    1
     9     4    38    1
    10     4    39    1
    11     5     6    1
    12     5    40    1
    13     5    41    1
    14     6     7   ar
    15     6    62   ar
    16     8     9    1
    17     8    14    1
    18     8    10    1
    19    10    11    1
    20    10    42    1
    21    10    43    1
    22    11    12    1
    23    11    44    1
    24    11    45    1
    25    12    13    1
    26    12    20    1
    27    12    14    1
    28    14    15    1
    29    14    34    1
    30    15    16    2
    31    15    17    1
    32    17    18    1
    33    17    46    1
    34    17    47    1
    35    18    19    1
    36    18    27    1
    37    18    20    1
    38    20    21    1
    39    20    22    1
    40    22    23    2
    41    22    24    1
    42    24    25    1
    43    24    48    1
    44    24    49    1
    45    25    26    1
    46    25    32    1
    47    25    27    1
    48    27    28    1
    49    27    33    1
    50    28    29    1
    51    28    50    1
    52    28    51    1
    53    29    30    1
    54    29    52    1
    55    29    53    1
    56    30    31    2
    57    30    32    1
    58    32    54    1
    59    32    55    1
    60    33    56    1
    61    33    57    1
    62    33    58    1
    63    34    59    1
    64    34    60    1
    65    34    61    1
