@<TRIPOS>MOLECULE
ZINC03831256
 42 46 0 0 0
SMALL
GASTEIGER

@<TRIPOS>ATOM
      1 C           2.0750    1.6047   -1.2027 C.3     1  UNL1       -0.0427
      2 C           2.0636    1.6314    1.2172 C.3     1  UNL1       -0.0307
      3 C           1.3527    2.2018    2.4499 C.3     1  UNL1        0.0039
      4 C          -0.0972    1.7237    2.4420 C.3     1  UNL1        0.0820
      5 C          -0.1395    0.2155    2.4207 C.ar    1  UNL1        0.0146
      6 C          -0.0941   -0.5912    1.3069 C.ar    1  UNL1       -0.0343
      7 C          -0.0988   -1.9531    1.5505 C.ar    1  UNL1       -0.0544
      8 C          -0.2087   -2.4296    2.8469 C.ar    1  UNL1       -0.0162
      9 C          -0.3369   -1.5994    3.9581 C.ar    1  UNL1        0.1588
     10 C          -0.3171   -0.2192    3.7258 C.ar    1  UNL1        0.1669
     11 O          -0.4454    0.8378    4.5562 O.3     1  UNL1       -0.4764
     12 C          -0.7947    2.0141    3.7649 C.3     1  UNL1        0.1704
     13 H          -0.4710    2.8880    4.1276 H       1  UNL1        0.0824
     14 C          -2.2881    2.0286    3.6201 C.2     1  UNL1        0.1745
     15 O          -2.9632    1.7699    4.5873 O.2     1  UNL1       -0.2934
     16 C          -2.9805    2.3497    2.3298 C.3     1  UNL1        0.0124
     17 C          -2.2426    1.6947    1.1606 C.3     1  UNL1       -0.0109
     18 C          -0.7913    2.1723    1.1665 C.3     1  UNL1        0.1225
     19 C          -0.0333    1.5559   -0.0131 C.3     1  UNL1        0.0133
     20 H          -0.5051    1.9198   -0.9259 H       1  UNL1        0.0883
     21 C          -0.0569    0.0367   -0.0482 C.3     1  UNL1        0.0187
     22 O          -0.7468    3.5975    1.0726 O.3     1  UNL1       -0.3819
     23 O          -0.4755   -2.1070    5.2122 O.3     1  UNL1       -0.5033
     24 H           1.5091    1.8903   -2.0895 H       1  UNL1        0.0778
     25 H           3.0561    2.0788   -1.2296 H       1  UNL1        0.0778
     26 H           2.1952    0.5216   -1.1816 H       1  UNL1        0.0778
     27 H           3.0866    2.0060    1.1831 H       1  UNL1        0.0815
     28 H           2.0780    0.5432    1.2784 H       1  UNL1        0.0815
     29 H           1.3789    3.2910    2.4159 H       1  UNL1        0.0328
     30 H           1.8482    1.8521    3.3556 H       1  UNL1        0.0328
     31 H          -0.0167   -2.6473    0.7273 H       1  UNL1        0.0622
     32 H          -0.1945   -3.4980    3.0037 H       1  UNL1        0.0655
     33 H          -2.9926    3.3406    2.1956 H       1  UNL1        0.0344
     34 H          -4.0033    1.9748    2.3673 H       1  UNL1        0.0344
     35 H          -2.7176    1.9809    0.2222 H       1  UNL1        0.0299
     36 H          -2.2710    0.6105    1.2689 H       1  UNL1        0.0299
     37 H          -0.9359   -0.2857   -0.6063 H       1  UNL1        0.0369
     38 H           0.8341   -0.3141   -0.5689 H       1  UNL1        0.0369
     39 H          -1.1429    3.9510    0.2644 H       1  UNL1        0.2105
     40 H          -1.3934   -2.2578    5.4762 H       1  UNL1        0.2923
     41 N           1.3539    2.0752   -0.0039 N.4     1  UNL1        0.2375
     42 H           1.3235    3.1014   -0.0149 H       1  UNL1        0.2034
@<TRIPOS>UNITY_ATOM_ATTR
41 1
charge 1
@<TRIPOS>BOND
     1     1    24    1
     2     1    25    1
     3     1    26    1
     4     1    41    1
     5     2     3    1
     6     2    27    1
     7     2    28    1
     8     2    41    1
     9     3     4    1
    10     3    29    1
    11     3    30    1
    12     4    12    1
    13     4    18    1
    14     4     5    1
    15     5    10   ar
    16     5     6   ar
    17     6    21    1
    18     6     7   ar
    19     7     8   ar
    20     7    31    1
    21     8     9   ar
    22     8    32    1
    23     9    10   ar
    24     9    23    1
    25    10    11    1
    26    11    12    1
    27    12    13    1
    28    12    14    1
    29    14    15    2
    30    14    16    1
    31    16    17    1
    32    16    33    1
    33    16    34    1
    34    17    18    1
    35    17    35    1
    36    17    36    1
    37    18    19    1
    38    18    22    1
    39    19    20    1
    40    19    21    1
    41    19    41    1
    42    21    37    1
    43    21    38    1
    44    22    39    1
    45    23    40    1
    46    41    42    1
