@<TRIPOS>MOLECULE
ZINC01482008
 58 61 0 0 0
SMALL
GASTEIGER

@<TRIPOS>ATOM
      1 C          -3.9937    1.0409    9.4896 C.ar    1  UNL1       -0.0617
      2 C          -5.1734    0.9849    8.7691 C.ar    1  UNL1       -0.0612
      3 C          -5.2234    0.2968    7.5742 C.ar    1  UNL1       -0.0546
      4 C          -4.0806   -0.3429    7.0926 C.ar    1  UNL1       -0.0251
      5 C          -2.8954   -0.2870    7.8268 C.ar    1  UNL1       -0.0546
      6 C          -2.8571    0.4092    9.0174 C.ar    1  UNL1       -0.0612
      7 C          -4.1271   -1.0817    5.8132 C.2     1  UNL1       -0.0536
      8 C          -3.0398   -1.6884    5.3583 C.2     1  UNL1       -0.0389
      9 C          -3.0871   -2.4417    4.0540 C.3     1  UNL1       -0.0123
     10 C          -2.2046   -2.4717    1.7989 C.3     1  UNL1        0.0098
     11 C          -1.0535   -1.9823    0.9170 C.3     1  UNL1        0.0104
     12 C          -0.8805    0.0259    2.2570 C.3     1  UNL1        0.0104
     13 C          -2.0316   -0.4634    3.1390 C.3     1  UNL1        0.0098
     14 C           0.0021   -0.0041    0.0020 C.3     1  UNL1        0.0313
     15 C          -0.0184    1.5028    0.0103 C.ar    1  UNL1        0.0048
     16 C          -1.2248    2.1776    0.0197 C.ar    1  UNL1       -0.0529
     17 C          -1.2435    3.5598    0.0322 C.ar    1  UNL1       -0.0613
     18 C          -0.0559    4.2672    0.0251 C.ar    1  UNL1       -0.0617
     19 C           1.1505    3.5924    0.0100 C.ar    1  UNL1       -0.0613
     20 C           1.1693    2.2102    0.0028 C.ar    1  UNL1       -0.0529
     21 C          -0.2512   -0.5022   -1.3976 C.ar    1  UNL1        0.0048
     22 C          -1.5421   -0.5567   -1.8888 C.ar    1  UNL1       -0.0529
     23 C          -1.7740   -1.0091   -3.1743 C.ar    1  UNL1       -0.0613
     24 C          -0.7158   -1.4164   -3.9650 C.ar    1  UNL1       -0.0617
     25 C           0.5746   -1.3672   -3.4718 C.ar    1  UNL1       -0.0613
     26 C           0.8070   -0.9099   -2.1881 C.ar    1  UNL1       -0.0529
     27 H          -3.9598    1.5805   10.4245 H       1  UNL1        0.0618
     28 H          -6.0572    1.4804    9.1429 H       1  UNL1        0.0618
     29 H          -6.1449    0.2538    7.0127 H       1  UNL1        0.0623
     30 H          -2.0087   -0.7838    7.4616 H       1  UNL1        0.0623
     31 H          -1.9391    0.4570    9.5844 H       1  UNL1        0.0618
     32 H          -5.0469   -1.1272    5.2491 H       1  UNL1        0.0622
     33 H          -2.1200   -1.6429    5.9225 H       1  UNL1        0.0625
     34 H          -4.0635   -2.3032    3.5896 H       1  UNL1        0.0861
     35 H          -2.9209   -3.5026    4.2408 H       1  UNL1        0.0861
     36 H          -3.1522   -2.1292    1.3832 H       1  UNL1        0.0868
     37 H          -2.1964   -3.5610    1.8363 H       1  UNL1        0.0868
     38 H          -1.1880   -2.3571   -0.0977 H       1  UNL1        0.0868
     39 H          -0.1077   -2.3476    1.3171 H       1  UNL1        0.0868
     40 H           0.0671   -0.3166    2.6728 H       1  UNL1        0.0868
     41 H          -0.8889    1.1152    2.2194 H       1  UNL1        0.0868
     42 H          -2.9773   -0.0981    2.7385 H       1  UNL1        0.0868
     43 H          -1.8974   -0.0886    4.1537 H       1  UNL1        0.0868
     44 H           0.9759   -0.3561    0.3423 H       1  UNL1        0.0958
     45 H          -2.1527    1.6249    0.0211 H       1  UNL1        0.0622
     46 H          -2.1860    4.0870    0.0437 H       1  UNL1        0.0618
     47 H          -0.0705    5.3471    0.0311 H       1  UNL1        0.0618
     48 H           2.0784    4.1450    0.0041 H       1  UNL1        0.0618
     49 H           2.1118    1.6830   -0.0091 H       1  UNL1        0.0622
     50 H          -2.3693   -0.2423   -1.2696 H       1  UNL1        0.0622
     51 H          -2.7822   -1.0478   -3.5595 H       1  UNL1        0.0618
     52 H          -0.8973   -1.7733   -4.9681 H       1  UNL1        0.0618
     53 H           1.4013   -1.6858   -4.0894 H       1  UNL1        0.0618
     54 H           1.8152   -0.8715   -1.8028 H       1  UNL1        0.0622
     55 N          -2.0164   -1.9413    3.1655 N.4     1  UNL1        0.2455
     56 H          -1.1088   -2.2594    3.5250 H       1  UNL1        0.2041
     57 N          -1.0686   -0.5047    0.8903 N.4     1  UNL1        0.2514
     58 H          -1.9763   -0.1866    0.5307 H       1  UNL1        0.2048
@<TRIPOS>UNITY_ATOM_ATTR
55 1
charge 1
57 1
charge 1
@<TRIPOS>BOND
     1     1     6   ar
     2     1     2   ar
     3     1    27    1
     4     2     3   ar
     5     2    28    1
     6     3     4   ar
     7     3    29    1
     8     4     5   ar
     9     4     7    1
    10     5     6   ar
    11     5    30    1
    12     6    31    1
    13     7     8    2
    14     7    32    1
    15     8     9    1
    16     8    33    1
    17     9    34    1
    18     9    35    1
    19     9    55    1
    20    10    11    1
    21    10    36    1
    22    10    37    1
    23    10    55    1
    24    11    38    1
    25    11    39    1
    26    11    57    1
    27    12    13    1
    28    12    40    1
    29    12    41    1
    30    12    57    1
    31    13    42    1
    32    13    43    1
    33    13    55    1
    34    14    15    1
    35    14    21    1
    36    14    44    1
    37    14    57    1
    38    15    20   ar
    39    15    16   ar
    40    16    17   ar
    41    16    45    1
    42    17    18   ar
    43    17    46    1
    44    18    19   ar
    45    18    47    1
    46    19    20   ar
    47    19    48    1
    48    20    49    1
    49    21    26   ar
    50    21    22   ar
    51    22    23   ar
    52    22    50    1
    53    23    24   ar
    54    23    51    1
    55    24    25   ar
    56    24    52    1
    57    25    26   ar
    58    25    53    1
    59    26    54    1
    60    55    56    1
    61    57    58    1
