@<TRIPOS>MOLECULE
ZINC05177572
 14 15 0 0 0
SMALL
GASTEIGER

@<TRIPOS>ATOM
      1 C           0.7268    3.0463    0.0115 C.ar    1  UNL1        0.0637
      2 C          -0.6808    3.0663    0.0251 C.ar    1  UNL1        0.1025
      3 C          -1.1139    1.7381    0.0162 C.ar    1  UNL1        0.1401
      4 N          -2.4620    1.4899    0.0201 N.ar    1  UNL1       -0.3307
      5 H          -2.7808    0.5738    0.0168 H       1  UNL1        0.1682
      6 C          -3.3478    2.5018    0.0290 C.ar    1  UNL1        0.0987
      7 N          -2.9953    3.7574    0.0348 N.ar    1  UNL1       -0.1989
      8 C          -1.6982    4.1222    0.0405 C.ar    1  UNL1        0.2837
      9 O          -1.3788    5.2996    0.0438 O.2     1  UNL1       -0.2650
     10 N          -0.0111    0.9658    0.0074 N.ar    1  UNL1       -0.2615
     11 H           0.0025   -0.0341    0.0057 H       1  UNL1        0.1905
     12 N           1.1142    1.8003    0.0011 N.ar    1  UNL1       -0.1798
     13 H           1.3733    3.9114    0.0097 H       1  UNL1        0.0856
     14 H          -4.4011    2.2632    0.0319 H       1  UNL1        0.1028
@<TRIPOS>BOND
     1     1    12   ar
     2     1     2   ar
     3     1    13    1
     4     2     8   ar
     5     2     3   ar
     6     3     4   ar
     7     3    10   ar
     8     4     5    1
     9     4     6   ar
    10     6     7   ar
    11     6    14    1
    12     7     8   ar
    13     8     9    2
    14    10    11    1
    15    10    12   ar
