@<TRIPOS>MOLECULE
ZINC00032350
 28 30 0 0 0
SMALL
GASTEIGER

@<TRIPOS>ATOM
      1 C          -2.4716    5.8061   -1.3879 C.3     1  UNL1       -0.0455
      2 C          -2.4584    5.2896    0.0522 C.3     1  UNL1        0.0394
      3 N          -2.4603    3.8247    0.0456 N.ar    1  UNL1       -0.2631
      4 C          -1.2513    3.1709    0.0311 C.ar    1  UNL1        0.0748
      5 C          -0.0511    3.8727    0.0237 C.ar    1  UNL1        0.0096
      6 C           1.1496    3.1876    0.0087 C.ar    1  UNL1        0.1683
      7 C           1.1694    1.7867    0.0005 C.ar    1  UNL1        0.1670
      8 C          -0.0126    1.0758    0.0080 C.ar    1  UNL1       -0.0032
      9 C          -1.2260    1.7614    0.0174 C.ar    1  UNL1        0.0526
     10 C          -2.5203    1.0586    0.0323 C.ar    1  UNL1        0.2168
     11 O          -2.5926   -0.1582    0.0270 O.2     1  UNL1       -0.2848
     12 C          -3.7242    1.9109    0.0481 C.ar    1  UNL1        0.1535
     13 N          -3.5876    3.2188    0.0533 N.ar    1  UNL1       -0.1656
     14 C          -5.0658    1.3032    0.0575 C.2     1  UNL1        0.0954
     15 O          -5.1850    0.0938    0.0527 O.co2   1  UNL1       -0.5429
     16 O           2.4698    1.3711   -0.0153 O.3     1  UNL1       -0.4526
     17 C           3.2344    2.5181   -0.4304 C.3     1  UNL1        0.2332
     18 O           2.4377    3.6375   -0.0011 O.3     1  UNL1       -0.4525
     19 H          -3.3670    5.4462   -1.8948 H       1  UNL1        0.0247
     20 H          -2.4702    6.8961   -1.3830 H       1  UNL1        0.0247
     21 H          -1.5871    5.4440   -1.9119 H       1  UNL1        0.0247
     22 H          -3.3430    5.6518    0.5762 H       1  UNL1        0.0506
     23 H          -1.5631    5.6495    0.5591 H       1  UNL1        0.0506
     24 H          -0.0567    4.9527    0.0302 H       1  UNL1        0.0677
     25 H           0.0021   -0.0041    0.0020 H       1  UNL1        0.0663
     26 H           3.3538    2.5267   -1.5138 H       1  UNL1        0.1166
     27 H           4.2073    2.5303    0.0608 H       1  UNL1        0.1166
     28 O          -6.1612    2.0883    0.0715 O.co2   1  UNL1       -0.5429
@<TRIPOS>UNITY_ATOM_ATTR
28 1
charge -1
@<TRIPOS>BOND
     1     1     2    1
     2     1    19    1
     3     1    20    1
     4     1    21    1
     5     2     3    1
     6     2    22    1
     7     2    23    1
     8     3    13   ar
     9     3     4   ar
    10     4     9   ar
    11     4     5   ar
    12     5     6   ar
    13     5    24    1
    14     6    18    1
    15     6     7   ar
    16     7     8   ar
    17     7    16    1
    18     8     9   ar
    19     8    25    1
    20     9    10   ar
    21    10    11    2
    22    10    12   ar
    23    12    13   ar
    24    12    14    1
    25    14    15   ar
    26    14    28   ar
    27    16    17    1
    28    17    18    1
    29    17    26    1
    30    17    27    1
