@<TRIPOS>MOLECULE
ZINC03830646
 54 57 0 0 0
SMALL
GASTEIGER

@<TRIPOS>ATOM
      1 C          -7.0912    8.4870   -4.9791 C.3     1  UNL1        0.0332
      2 C          -5.7653    8.5912   -4.2703 C.2     1  UNL1        0.3042
      3 O          -5.3669    9.6664   -3.8892 O.2     1  UNL1       -0.2512
      4 O          -5.0271    7.4897   -4.0624 O.3     1  UNL1       -0.4612
      5 C          -3.7854    7.6616   -3.3866 C.3     1  UNL1        0.1068
      6 H          -3.5091    8.7310   -3.6732 H       1  UNL1        0.0737
      7 C          -2.8029    6.7534   -3.9537 C.3     1  UNL1       -0.0146
      8 C          -3.1752    5.2879   -3.7635 C.3     1  UNL1       -0.0403
      9 C          -3.5007    5.0078   -2.2421 C.3     1  UNL1       -0.0077
     10 C          -2.6834    3.8476   -1.8133 C.3     1  UNL1       -0.0285
     11 H          -2.4942    3.1373   -2.7015 H       1  UNL1        0.0312
     12 C          -3.4416    2.8910   -0.8745 C.3     1  UNL1       -0.0483
     13 C          -2.6137    1.6137   -0.5463 C.3     1  UNL1       -0.0404
     14 C          -1.2793    2.0526   -0.0176 C.3     1  UNL1        0.0293
     15 C          -0.5448    3.0184   -0.9797 C.3     1  UNL1       -0.0252
     16 H          -0.3763    2.4246   -1.9599 H       1  UNL1        0.0313
     17 C          -1.3197    4.2153   -1.3016 C.3     1  UNL1       -0.0303
     18 H          -0.7756    4.7344   -2.0847 H       1  UNL1        0.0310
     19 C          -1.4964    5.1989   -0.1297 C.3     1  UNL1       -0.0311
     20 C          -2.2816    6.3213   -0.5445 C.2     1  UNL1       -0.0838
     21 C          -3.2044    6.2718   -1.5596 C.2     1  UNL1       -0.0638
     22 C          -3.9921    7.5234   -1.9137 C.3     1  UNL1        0.0061
     23 C           0.8506    3.1012   -0.2885 C.3     1  UNL1       -0.0424
     24 C           1.1553    1.6385    0.1707 C.3     1  UNL1        0.0067
     25 C          -0.2158    0.9548    0.0785 C.2     1  UNL1        0.1395
     26 O          -0.4368   -0.2184    0.0517 O.2     1  UNL1       -0.2968
     27 C          -1.3581    2.5443    1.4088 C.3     1  UNL1       -0.0526
     28 C          -4.9711    4.7132   -2.1146 C.3     1  UNL1       -0.0556
     29 H          -7.8815    8.3167   -4.2482 H       1  UNL1        0.0342
     30 H          -7.2886    9.4134   -5.5185 H       1  UNL1        0.0342
     31 H          -7.0623    7.6557   -5.6835 H       1  UNL1        0.0342
     32 H          -2.6221    6.9415   -5.0417 H       1  UNL1        0.0301
     33 H          -1.7901    6.8818   -3.4518 H       1  UNL1        0.0301
     34 H          -4.0649    5.0206   -4.3443 H       1  UNL1        0.0275
     35 H          -2.4252    4.6590   -4.0948 H       1  UNL1        0.0275
     36 H          -3.6448    3.4353    0.0785 H       1  UNL1        0.0269
     37 H          -4.3260    2.5229   -1.2814 H       1  UNL1        0.0269
     38 H          -3.0948    0.9520    0.1957 H       1  UNL1        0.0275
     39 H          -2.4922    1.0448   -1.5178 H       1  UNL1        0.0275
     40 H          -2.0502    4.7682    0.7338 H       1  UNL1        0.0310
     41 H          -0.4888    5.5564    0.2623 H       1  UNL1        0.0310
     42 H          -2.0980    7.3075   -0.0766 H       1  UNL1        0.0572
     43 H          -5.0387    7.4106   -1.6050 H       1  UNL1        0.0346
     44 H          -3.5376    8.3602   -1.3549 H       1  UNL1        0.0346
     45 H           0.8118    3.7584    0.5739 H       1  UNL1        0.0272
     46 H           1.5890    3.4916   -0.9536 H       1  UNL1        0.0272
     47 H           1.5273    1.6512    1.0989 H       1  UNL1        0.0342
     48 H           1.8305    1.2143   -0.4737 H       1  UNL1        0.0342
     49 H          -0.4229    3.0366    1.6757 H       1  UNL1        0.0239
     50 H          -2.1814    3.2522    1.5042 H       1  UNL1        0.0239
     51 H          -1.5268    1.6988    2.0758 H       1  UNL1        0.0239
     52 H          -5.5443    5.5200   -2.5713 H       1  UNL1        0.0238
     53 H          -5.1988    3.7746   -2.6198 H       1  UNL1        0.0238
     54 H          -5.2352    4.6316   -1.0602 H       1  UNL1        0.0238
@<TRIPOS>BOND
     1     1     2    1
     2     1    29    1
     3     1    30    1
     4     1    31    1
     5     2     3    2
     6     2     4    1
     7     4     5    1
     8     5     6    1
     9     5    22    1
    10     5     7    1
    11     7     8    1
    12     7    32    1
    13     7    33    1
    14     8     9    1
    15     8    34    1
    16     8    35    1
    17     9    21    1
    18     9    10    1
    19     9    28    1
    20    10    11    1
    21    10    17    1
    22    10    12    1
    23    12    13    1
    24    12    36    1
    25    12    37    1
    26    13    14    1
    27    13    38    1
    28    13    39    1
    29    14    25    1
    30    14    15    1
    31    14    27    1
    32    15    16    1
    33    15    17    1
    34    15    23    1
    35    17    18    1
    36    17    19    1
    37    19    20    1
    38    19    40    1
    39    19    41    1
    40    20    21    2
    41    20    42    1
    42    21    22    1
    43    22    43    1
    44    22    44    1
    45    23    24    1
    46    23    45    1
    47    23    46    1
    48    24    25    1
    49    24    47    1
    50    24    48    1
    51    25    26    2
    52    27    49    1
    53    27    50    1
    54    27    51    1
    55    28    52    1
    56    28    53    1
    57    28    54    1
