@<TRIPOS>MOLECULE
ZINC01641058
 18 17 0 0 0
SMALL
GASTEIGER

@<TRIPOS>ATOM
      1 C           1.4161    3.2361    2.4090 C.3     1  UNL1       -0.0433
      2 C           0.1600    4.9330    1.2235 C.3     1  UNL1       -0.0433
      3 C           1.1449    3.0852    0.0077 C.3     1  UNL1       -0.0087
      4 C           1.2864    1.5618   -0.0018 C.3     1  UNL1        0.0840
      5 O          -0.0110    0.9628    0.0073 O.3     1  UNL1       -0.3898
      6 H           2.3539    3.7760    2.2776 H       1  UNL1        0.0777
      7 H           0.9356    3.5617    3.3316 H       1  UNL1        0.0777
      8 H           1.6172    2.1662    2.4620 H       1  UNL1        0.0777
      9 H          -0.5522    5.0966    0.4147 H       1  UNL1        0.0777
     10 H          -0.2939    5.2226    2.1713 H       1  UNL1        0.0777
     11 H           1.0522    5.5343    1.0492 H       1  UNL1        0.0777
     12 H           2.1297    3.5421   -0.0888 H       1  UNL1        0.0837
     13 H           0.5164    3.3969   -0.8265 H       1  UNL1        0.0837
     14 H           1.8401    1.2428    0.8812 H       1  UNL1        0.0610
     15 H           1.8231    1.2523   -0.8987 H       1  UNL1        0.0610
     16 H           0.0021   -0.0041    0.0020 H       1  UNL1        0.2096
     17 N           0.5048    3.4966    1.2748 N.4     1  UNL1        0.2325
     18 H          -0.3554    2.9516    1.4062 H       1  UNL1        0.2028
@<TRIPOS>UNITY_ATOM_ATTR
17 1
charge 1
@<TRIPOS>BOND
     1     1     6    1
     2     1     7    1
     3     1     8    1
     4     1    17    1
     5     2     9    1
     6     2    10    1
     7     2    11    1
     8     2    17    1
     9     3     4    1
    10     3    12    1
    11     3    13    1
    12     3    17    1
    13     4     5    1
    14     4    14    1
    15     4    15    1
    16     5    16    1
    17    17    18    1
