@<TRIPOS>MOLECULE
ZINC11592888
 71 74 0 0 0
SMALL
GASTEIGER

@<TRIPOS>ATOM
      1 C          -3.0978   -3.8653    0.8186 C.3     1  UNL1       -0.0562
      2 C          -3.0673   -2.3566    0.5240 C.3     1  UNL1        0.0092
      3 C          -3.5562   -1.6029    1.7333 C.3     1  UNL1       -0.0178
      4 C          -4.9663   -1.0406    1.4627 C.3     1  UNL1        0.0600
      5 H          -4.8763   -0.1909    0.7887 H       1  UNL1        0.0596
      6 C          -5.8603   -2.1155    0.8594 C.3     1  UNL1        0.0007
      7 H          -5.7230   -2.9936    1.5199 H       1  UNL1        0.0340
      8 C          -5.3446   -2.5823   -0.4918 C.3     1  UNL1       -0.0311
      9 H          -5.3170   -3.6750   -0.5066 H       1  UNL1        0.0308
     10 C          -3.9492   -2.0238   -0.7033 C.3     1  UNL1       -0.0292
     11 H          -4.0031   -0.9409   -0.8628 H       1  UNL1        0.0310
     12 C          -3.1690   -2.6796   -1.8538 C.3     1  UNL1       -0.0463
     13 C          -1.6794   -2.5278   -1.4539 C.3     1  UNL1       -0.0161
     14 C          -1.6663   -2.0072    0.0072 C.3     1  UNL1        0.1326
     15 C          -1.4117   -0.5257    0.0127 C.2     1  UNL1        0.2022
     16 O          -2.3401    0.2465    0.0257 O.2     1  UNL1       -0.2907
     17 C           0.0021   -0.0041    0.0020 C.3     1  UNL1        0.1530
     18 O          -0.0176    1.4478    0.0100 O.3     1  UNL1       -0.4568
     19 C           1.1699    2.0734    0.0020 C.2     1  UNL1        0.3080
     20 O           2.1921    1.4292   -0.0112 O.2     1  UNL1       -0.2508
     21 C           1.2284    3.5792    0.0096 C.3     1  UNL1        0.0498
     22 C           2.6895    4.0330   -0.0020 C.3     1  UNL1       -0.0277
     23 C           3.3785    3.5021   -1.2607 C.3     1  UNL1       -0.0596
     24 C           2.7489    5.5618    0.0057 C.3     1  UNL1       -0.0596
     25 C           3.4023    3.4887    1.2376 C.3     1  UNL1       -0.0596
     26 O          -0.6721   -2.6945    0.7669 O.3     1  UNL1       -0.3804
     27 C          -6.2608   -2.1268   -1.6309 C.3     1  UNL1       -0.0458
     28 C          -7.6055   -2.8388   -1.4497 C.3     1  UNL1       -0.0302
     29 C          -8.1857   -2.4136   -0.1233 C.2     1  UNL1       -0.0559
     30 C          -9.5096   -2.5371    0.0469 C.2     1  UNL1       -0.0149
     31 C         -10.0801   -2.2535    1.3831 C.2     1  UNL1        0.1787
     32 O         -11.2629   -1.9865    1.5398 O.2     1  UNL1       -0.2879
     33 C          -9.1543   -2.3571    2.5367 C.2     1  UNL1       -0.0180
     34 C          -7.8482   -2.1742    2.3226 C.2     1  UNL1       -0.0701
     35 C          -7.3300   -1.8265    0.9512 C.3     1  UNL1        0.0131
     36 C          -7.5174   -0.3148    0.8102 C.3     1  UNL1       -0.0520
     37 O          -5.4866   -0.6003    2.7229 O.3     1  UNL1       -0.3914
     38 H          -2.3647   -4.0997    1.5904 H       1  UNL1        0.0236
     39 H          -4.0922   -4.1480    1.1641 H       1  UNL1        0.0236
     40 H          -2.8582   -4.4179   -0.0899 H       1  UNL1        0.0236
     41 H          -2.8965   -0.7918    2.0218 H       1  UNL1        0.0297
     42 H          -3.6258   -2.2955    2.5856 H       1  UNL1        0.0297
     43 H          -3.3631   -2.1530   -2.7909 H       1  UNL1        0.0269
     44 H          -3.4360   -3.7313   -1.9602 H       1  UNL1        0.0269
     45 H          -1.1876   -1.8073   -2.1059 H       1  UNL1        0.0297
     46 H          -1.1731   -3.4902   -1.5079 H       1  UNL1        0.0297
     47 H           0.4702   -0.3266   -0.8207 H       1  UNL1        0.0779
     48 H           0.5293   -0.3651    0.8851 H       1  UNL1        0.0779
     49 H           0.7206    3.9670   -0.8736 H       1  UNL1        0.0383
     50 H           0.7376    3.9574    0.9063 H       1  UNL1        0.0383
     51 H           2.8707    3.8899   -2.1438 H       1  UNL1        0.0235
     52 H           4.4194    3.8254   -1.2689 H       1  UNL1        0.0235
     53 H           3.3362    2.4130   -1.2662 H       1  UNL1        0.0235
     54 H           2.2580    5.9400    0.9024 H       1  UNL1        0.0235
     55 H           3.7898    5.8850   -0.0025 H       1  UNL1        0.0235
     56 H           2.2410    5.9495   -0.8774 H       1  UNL1        0.0235
     57 H           3.3601    2.3995    1.2322 H       1  UNL1        0.0235
     58 H           4.4433    3.8120    1.2294 H       1  UNL1        0.0235
     59 H           2.9115    3.8669    2.1344 H       1  UNL1        0.0235
     60 H           0.2301   -2.5619    0.4452 H       1  UNL1        0.2108
     61 H          -6.3940   -1.0478   -1.6033 H       1  UNL1        0.0271
     62 H          -5.8210   -2.4131   -2.5903 H       1  UNL1        0.0271
     63 H          -8.2846   -2.5519   -2.2513 H       1  UNL1        0.0310
     64 H          -7.4557   -3.9162   -1.4538 H       1  UNL1        0.0310
     65 H         -10.1462   -2.8836   -0.7673 H       1  UNL1        0.0655
     66 H          -9.5291   -2.5735    3.5363 H       1  UNL1        0.0653
     67 H          -7.1508   -2.2680    3.1535 H       1  UNL1        0.0582
     68 H          -8.5694   -0.0647    0.9472 H       1  UNL1        0.0241
     69 H          -6.9209    0.1973    1.5652 H       1  UNL1        0.0241
     70 H          -7.1954    0.0002   -0.1824 H       1  UNL1        0.0241
     71 H          -4.9545    0.0847    3.1504 H       1  UNL1        0.2098
@<TRIPOS>BOND
     1     1     2    1
     2     1    38    1
     3     1    39    1
     4     1    40    1
     5     2    10    1
     6     2    14    1
     7     2     3    1
     8     3     4    1
     9     3    41    1
    10     3    42    1
    11     4     5    1
    12     4     6    1
    13     4    37    1
    14     6     7    1
    15     6    35    1
    16     6     8    1
    17     8     9    1
    18     8    10    1
    19     8    27    1
    20    10    11    1
    21    10    12    1
    22    12    13    1
    23    12    43    1
    24    12    44    1
    25    13    14    1
    26    13    45    1
    27    13    46    1
    28    14    15    1
    29    14    26    1
    30    15    16    2
    31    15    17    1
    32    17    18    1
    33    17    47    1
    34    17    48    1
    35    18    19    1
    36    19    20    2
    37    19    21    1
    38    21    22    1
    39    21    49    1
    40    21    50    1
    41    22    23    1
    42    22    24    1
    43    22    25    1
    44    23    51    1
    45    23    52    1
    46    23    53    1
    47    24    54    1
    48    24    55    1
    49    24    56    1
    50    25    57    1
    51    25    58    1
    52    25    59    1
    53    26    60    1
    54    27    28    1
    55    27    61    1
    56    27    62    1
    57    28    29    1
    58    28    63    1
    59    28    64    1
    60    29    35    1
    61    29    30    2
    62    30    31    1
    63    30    65    1
    64    31    32    2
    65    31    33    1
    66    33    34    2
    67    33    66    1
    68    34    35    1
    69    34    67    1
    70    35    36    1
    71    36    68    1
    72    36    69    1
    73    36    70    1
    74    37    71    1
