@<TRIPOS>MOLECULE
ZINC09213043
 38 40 0 0 0
SMALL
GASTEIGER

@<TRIPOS>ATOM
      1 C           1.4516   -2.6319    6.6646 C.ar    1  UNL1       -0.0617
      2 C           1.5800   -1.3110    6.2777 C.ar    1  UNL1       -0.0613
      3 C           2.6106   -0.9341    5.4371 C.ar    1  UNL1       -0.0528
      4 C           3.5134   -1.8779    4.9841 C.ar    1  UNL1        0.0091
      5 C           3.3821   -3.1996    5.3672 C.ar    1  UNL1       -0.0528
      6 C           2.3541   -3.5758    6.2112 C.ar    1  UNL1       -0.0613
      7 CA          4.6370   -1.4670    4.0678 C.3     1  UNL1        0.0789
      8 HA          4.8001   -0.3926    4.1521 H       1  UNL1        0.1002
      9 C           4.2762   -1.8102    2.6454 C.2     1  UNL1        0.2665
     10 O           4.7250   -2.8126    2.1310 O.2     1  UNL1       -0.2692
     11 N           3.4549   -1.0032    1.9450 N.am    1  UNL1       -0.2968
     12 CA          3.1042   -1.3368    0.5623 C.3     1  UNL1        0.1285
     13 HA          3.8733   -1.9149    0.0502 H       1  UNL1        0.0622
     14 C           2.5751   -0.1670   -0.2395 C.3     1  UNL1        0.1041
     15 H           2.8632   -0.1567   -1.2907 H       1  UNL1        0.0644
     16 N           1.2209   -0.7053    0.0512 N.am    1  UNL1       -0.2523
     17 C           1.7132   -1.8856    0.3978 C.2     1  UNL1        0.2439
     18 O           1.2271   -2.9888    0.5321 O.2     1  UNL1       -0.2731
     19 CA          0.0021   -0.0041    0.0020 C.2     1  UNL1        0.0749
     20 C          -0.0154    1.3224   -0.0059 C.2     1  UNL1        0.0514
     21 C           1.1491    2.2592   -0.0148 C.3     1  UNL1        0.0331
     22 S           2.6660    1.4569    0.5893 S.3     1  UNL1       -0.1300
     23 CL         -1.5860    2.0619   -0.0137 Cl      1  UNL1       -0.0854
     24 C          -1.2657   -0.7493   -0.0406 C.2     1  UNL1        0.0871
     25 O          -2.3233   -0.1537    0.0228 O.co2   1  UNL1       -0.5433
     26 H           0.6464   -2.9264    7.3213 H       1  UNL1        0.0618
     27 H           0.8749   -0.5736    6.6319 H       1  UNL1        0.0618
     28 H           2.7108    0.0978    5.1346 H       1  UNL1        0.0622
     29 H           4.0849   -3.9378    5.0097 H       1  UNL1        0.0622
     30 H           2.2539   -4.6077    6.5138 H       1  UNL1        0.0618
     31 H           3.0959   -0.2014    2.3565 H       1  UNL1        0.1497
     32 H           1.3145    2.6104   -1.0334 H       1  UNL1        0.0435
     33 H           0.9219    3.1143    0.6218 H       1  UNL1        0.0435
     34 H1          6.1628   -1.9171    5.3746 H       1  UNL1        0.2005
     35 H2          5.7383   -3.1786    4.3774 H       1  UNL1        0.2005
     36 OXT        -1.2544   -2.0930   -0.1500 O.co2   1  UNL1       -0.5433
     37 N           5.8798   -2.1712    4.4296 N.4     1  UNL1        0.2307
     38 H3          6.6229   -1.9028    3.7738 H       1  UNL1        0.2005
@<TRIPOS>UNITY_ATOM_ATTR
36 1
charge -1
37 1
charge 1
@<TRIPOS>BOND
     1     1     6   ar
     2     1     2   ar
     3     1    26    1
     4     2     3   ar
     5     2    27    1
     6     3     4   ar
     7     3    28    1
     8     4     5   ar
     9     4     7    1
    10     5     6   ar
    11     5    29    1
    12     6    30    1
    13     7     8    1
    14     7     9    1
    15     7    37    1
    16     9    10    2
    17     9    11   am
    18    11    12    1
    19    11    31    1
    20    12    13    1
    21    12    17    1
    22    12    14    1
    23    14    15    1
    24    14    22    1
    25    14    16    1
    26    16    17   am
    27    16    19    1
    28    17    18    2
    29    19    20    2
    30    19    24    1
    31    20    21    1
    32    20    23    1
    33    21    22    1
    34    21    32    1
    35    21    33    1
    36    24    25   ar
    37    24    36   ar
    38    34    37    1
    39    35    37    1
    40    37    38    1
