@<TRIPOS>MOLECULE
ZINC03830890
 26 26 0 0 0
SMALL
GASTEIGER

@<TRIPOS>ATOM
      1 C           1.4226    1.6156   -0.0028 C.3     1  UNL1        0.0730
      2 C          -0.0127    1.0858    0.0080 C.3     1  UNL1        0.1132
      3 H           0.0021   -0.0041    0.0020 H       1  UNL1        0.0647
      4 C          -0.7297    1.5798    1.2672 C.3     1  UNL1        0.1147
      5 H          -0.2293    1.1832    2.1506 H       1  UNL1        0.0648
      6 C          -2.1829    1.0953    1.2408 C.3     1  UNL1        0.1304
      7 H          -2.7156    1.4889    2.1065 H       1  UNL1        0.0679
      8 C          -2.8527    1.5941   -0.0433 C.3     1  UNL1        0.0565
      9 H          -2.8753    2.6839   -0.0428 H       1  UNL1        0.0927
     10 C          -2.0534    1.0996   -1.2518 C.3     1  UNL1        0.2030
     11 H          -2.5010    1.4870   -2.1670 H       1  UNL1        0.0968
     12 O          -0.7043    1.5594   -1.1494 O.3     1  UNL1       -0.3383
     13 O          -2.0691   -0.3290   -1.2812 O.3     1  UNL1       -0.3627
     14 O          -2.2112   -0.3331    1.2710 O.3     1  UNL1       -0.3834
     15 O          -0.7032    3.0081    1.3027 O.3     1  UNL1       -0.3864
     16 O           2.1265    1.0616   -1.1162 O.3     1  UNL1       -0.3924
     17 H           1.4081    2.7023   -0.0864 H       1  UNL1        0.0584
     18 H           1.9227    1.3290    0.9223 H       1  UNL1        0.0584
     19 H          -1.5800   -0.7125   -2.0221 H       1  UNL1        0.2127
     20 H          -4.6854    1.3870   -0.9581 H       1  UNL1        0.2000
     21 H          -4.2343    0.0678   -0.0514 H       1  UNL1        0.2000
     22 H          -3.1017   -0.7094    1.2497 H       1  UNL1        0.2102
     23 H           0.1874    3.3847    1.3157 H       1  UNL1        0.2100
     24 H           3.0453    1.3546   -1.1860 H       1  UNL1        0.2095
     25 N          -4.2347    1.0855   -0.0957 N.4     1  UNL1        0.2263
     26 H          -4.7611    1.4555    0.7044 H       1  UNL1        0.2000
@<TRIPOS>UNITY_ATOM_ATTR
25 1
charge 1
@<TRIPOS>BOND
     1     1     2    1
     2     1    16    1
     3     1    17    1
     4     1    18    1
     5     2     3    1
     6     2    12    1
     7     2     4    1
     8     4     5    1
     9     4     6    1
    10     4    15    1
    11     6     7    1
    12     6     8    1
    13     6    14    1
    14     8     9    1
    15     8    10    1
    16     8    25    1
    17    10    11    1
    18    10    12    1
    19    10    13    1
    20    13    19    1
    21    14    22    1
    22    15    23    1
    23    16    24    1
    24    20    25    1
    25    21    25    1
    26    25    26    1
