@<TRIPOS>MOLECULE
ZINC13547730
 54 57 0 0 0
SMALL
GASTEIGER

@<TRIPOS>ATOM
      1 C          -4.5866    9.9199    4.1791 C.3     1  UNL1       -0.0383
      2 C          -4.1636    9.1893    5.4275 C.ar    1  UNL1       -0.0266
      3 C          -3.3920    8.0375    5.3330 C.ar    1  UNL1        0.0369
      4 C          -2.9973    7.3560    6.5023 C.ar    1  UNL1        0.0369
      5 C          -3.3785    7.8344    7.7479 C.ar    1  UNL1       -0.0080
      6 C          -4.1509    8.9874    7.8427 C.ar    1  UNL1        0.1266
      7 C          -4.5452    9.6679    6.6814 C.ar    1  UNL1        0.0423
      8 C          -5.3640   10.8915    6.7858 C.2     1  UNL1        0.0754
      9 O          -6.5763   10.8130    6.7845 O.co2   1  UNL1       -0.5445
     10 O          -4.5229    9.4539    9.0590 O.3     1  UNL1       -0.5061
     11 C          -2.1736    6.1290    6.3907 C.2     1  UNL1        0.1984
     12 O          -2.0322    5.3935    7.3481 O.2     1  UNL1       -0.2865
     13 C          -1.5277    5.8120    5.1044 C.ar    1  UNL1        0.0816
     14 C          -1.9249    6.4976    3.9343 C.ar    1  UNL1        0.0785
     15 C          -1.3090    6.2033    2.7155 C.ar    1  UNL1        0.1378
     16 C          -0.3161    5.2291    2.6571 C.ar    1  UNL1        0.0708
     17 C           0.0742    4.5566    3.7990 C.ar    1  UNL1        0.1684
     18 C          -0.5290    4.8431    5.0320 C.ar    1  UNL1        0.1705
     19 O          -0.1421    4.1793    6.1498 O.3     1  UNL1       -0.5028
     20 O           1.0477    3.6133    3.7271 O.3     1  UNL1       -0.5030
     21 C           0.3422    4.9101    1.3395 C.3     1  UNL1        0.1194
     22 H           1.2864    4.3961    1.5197 H       1  UNL1        0.0676
     23 C          -0.5796    4.0096    0.5130 C.3     1  UNL1        0.1139
     24 H          -0.7340    3.0668    1.0378 H       1  UNL1        0.0649
     25 C           0.0695    3.7393   -0.8478 C.3     1  UNL1        0.1121
     26 H          -0.6058    3.1435   -1.4620 H       1  UNL1        0.0647
     27 C           0.3515    5.0756   -1.5414 C.3     1  UNL1        0.1117
     28 H          -0.5889    5.5938   -1.7293 H       1  UNL1        0.0647
     29 C           1.2371    5.9350   -0.6355 C.3     1  UNL1        0.1108
     30 H           2.1931    5.4346   -0.4811 H       1  UNL1        0.0646
     31 O           0.5885    6.1223    0.6240 O.3     1  UNL1       -0.3609
     32 C           1.4738    7.2952   -1.2948 C.3     1  UNL1        0.0729
     33 O           2.3929    8.0535   -0.5060 O.3     1  UNL1       -0.3924
     34 O           1.0233    4.8385   -2.7802 O.3     1  UNL1       -0.3865
     35 O           1.2959    3.0302   -0.6600 O.3     1  UNL1       -0.3865
     36 O          -1.8371    4.6610    0.3214 O.3     1  UNL1       -0.3862
     37 O          -1.6812    6.8618    1.5900 O.3     1  UNL1       -0.5055
     38 C          -2.9801    7.5206    4.0113 C.2     1  UNL1        0.1984
     39 O          -3.5082    7.9362    2.9971 O.2     1  UNL1       -0.2865
     40 H          -5.5433    9.5271    3.8348 H       1  UNL1        0.0278
     41 H          -4.6876   10.9831    4.3969 H       1  UNL1        0.0278
     42 H          -3.8348    9.7779    3.4027 H       1  UNL1        0.0278
     43 H          -3.0759    7.3117    8.6432 H       1  UNL1        0.0661
     44 H          -5.3656    9.1004    9.3750 H       1  UNL1        0.2922
     45 H           0.5816    4.6051    6.6294 H       1  UNL1        0.2923
     46 H           1.9319    3.9436    3.9374 H       1  UNL1        0.2923
     47 H           0.5284    7.8327   -1.3683 H       1  UNL1        0.0584
     48 H           1.8867    7.1482   -2.2928 H       1  UNL1        0.0584
     49 H           2.5899    8.9294   -0.8651 H       1  UNL1        0.2095
     50 H           0.5187    4.2990   -3.4043 H       1  UNL1        0.2100
     51 H           1.7616    2.8252   -1.4823 H       1  UNL1        0.2100
     52 H          -2.4719    4.1462   -0.1954 H       1  UNL1        0.2100
     53 H          -2.4026    6.4370    1.1061 H       1  UNL1        0.2922
     54 O          -4.7669   12.0953    6.8826 O.co2   1  UNL1       -0.5445
@<TRIPOS>UNITY_ATOM_ATTR
54 1
charge -1
@<TRIPOS>BOND
     1     1     2    1
     2     1    40    1
     3     1    41    1
     4     1    42    1
     5     2     7   ar
     6     2     3   ar
     7     3    38    1
     8     3     4   ar
     9     4     5   ar
    10     4    11    1
    11     5     6   ar
    12     5    43    1
    13     6     7   ar
    14     6    10    1
    15     7     8    1
    16     8     9   ar
    17     8    54   ar
    18    10    44    1
    19    11    12    2
    20    11    13    1
    21    13    18   ar
    22    13    14   ar
    23    14    15   ar
    24    14    38    1
    25    15    16   ar
    26    15    37    1
    27    16    17   ar
    28    16    21    1
    29    17    18   ar
    30    17    20    1
    31    18    19    1
    32    19    45    1
    33    20    46    1
    34    21    22    1
    35    21    31    1
    36    21    23    1
    37    23    24    1
    38    23    25    1
    39    23    36    1
    40    25    26    1
    41    25    27    1
    42    25    35    1
    43    27    28    1
    44    27    29    1
    45    27    34    1
    46    29    30    1
    47    29    31    1
    48    29    32    1
    49    32    33    1
    50    32    47    1
    51    32    48    1
    52    33    49    1
    53    34    50    1
    54    35    51    1
    55    36    52    1
    56    37    53    1
    57    38    39    2
