@<TRIPOS>MOLECULE
ZINC00002184
 25 27 0 0 0
SMALL
GASTEIGER

@<TRIPOS>ATOM
      1 C          -1.2751    1.9691   -0.6723 C.ar    1  UNL1       -0.0319
      2 C          -0.6526    2.6993   -1.6290 C.ar    1  UNL1       -0.0381
      3 C           0.5819    3.3043   -1.3988 C.ar    1  UNL1        0.0795
      4 C           1.2200    3.1836   -0.2015 C.ar    1  UNL1        0.1381
      5 C           0.6240    2.4252    0.8470 C.ar    1  UNL1        0.1375
      6 C          -0.6685    1.7942    0.5995 C.ar    1  UNL1        0.1032
      7 N          -1.1065    1.1192    1.6604 N.ar    1  UNL1       -0.1907
      8 S          -0.0132    1.2903    2.7699 S.2     1  UNL1        0.1166
      9 N           1.0719    2.1831    2.0763 N.ar    1  UNL1       -0.1874
     10 N           2.4563    3.8025   -0.0019 N.pl3   1  UNL1       -0.2056
     11 C           3.6203    3.1023   -0.2237 C.cat   1  UNL1        0.3340
     12 C           5.0212    1.3850   -0.6986 C.3     1  UNL1        0.0929
     13 C           5.8687    2.6465   -0.4392 C.3     1  UNL1        0.0883
     14 N           4.8590    3.6789   -0.1517 N.pl3   1  UNL1       -0.2377
     15 CL          1.3224    4.2316   -2.6659 Cl      1  UNL1       -0.0801
     16 H          -2.2335    1.5159   -0.8789 H       1  UNL1        0.0640
     17 H          -1.1266    2.8191   -2.5921 H       1  UNL1        0.0634
     18 H           2.4944    4.7258    0.2931 H       1  UNL1        0.2512
     19 H           5.2606    0.6079    0.0273 H       1  UNL1        0.0685
     20 H           5.1770    1.0195   -1.7136 H       1  UNL1        0.0685
     21 H           6.5268    2.4982    0.4170 H       1  UNL1        0.0664
     22 H           6.4460    2.9108   -1.3252 H       1  UNL1        0.0664
     23 H           5.0410    4.6089    0.0553 H       1  UNL1        0.2444
     24 N           3.6330    1.8423   -0.5238 N.2     1  UNL1       -0.2788
     25 H           2.7997    1.2510   -0.6246 H       1  UNL1        0.2575
@<TRIPOS>UNITY_ATOM_ATTR
24 1
charge 1
@<TRIPOS>BOND
     1     1     6   ar
     2     1     2   ar
     3     1    16    1
     4     2     3   ar
     5     2    17    1
     6     3     4   ar
     7     3    15    1
     8     4     5   ar
     9     4    10    1
    10     5     9   ar
    11     5     6   ar
    12     6     7   ar
    13     7     8   ar
    14     8     9   ar
    15    10    11    1
    16    10    18    1
    17    11    14    1
    18    11    24    2
    19    12    13    1
    20    12    19    1
    21    12    20    1
    22    12    24    1
    23    13    14    1
    24    13    21    1
    25    13    22    1
    26    14    23    1
    27    24    25    1
