@<TRIPOS>MOLECULE
ZINC11698077
 51 55 0 0 0
SMALL
GASTEIGER

@<TRIPOS>ATOM
      1 C          -0.8885   -5.0681   -1.1063 C.3     1  UNL1       -0.0569
      2 C          -2.3044   -4.4949   -1.1935 C.3     1  UNL1       -0.0030
      3 C          -2.4579   -3.6992   -2.4753 C.3     1  UNL1       -0.0447
      4 C          -1.3268   -2.6573   -2.4908 C.3     1  UNL1       -0.0488
      5 C          -1.3843   -1.7527   -1.2635 C.3     1  UNL1       -0.0297
      6 H          -2.3367   -1.2238   -1.2993 H       1  UNL1        0.0310
      7 C          -1.3683   -2.5664    0.0326 C.3     1  UNL1       -0.0341
      8 H          -0.4380   -3.1291    0.1093 H       1  UNL1        0.0306
      9 C          -2.5501   -3.5182   -0.0118 C.3     1  UNL1       -0.0301
     10 H          -3.4768   -2.9644   -0.1620 H       1  UNL1        0.0310
     11 C          -2.6751   -4.4860    1.1696 C.3     1  UNL1       -0.0470
     12 C          -3.5317   -5.6412    0.5827 C.3     1  UNL1       -0.0261
     13 C          -3.3274   -5.6003   -0.9523 C.3     1  UNL1        0.0609
     14 H          -4.2657   -5.3625   -1.4534 H       1  UNL1        0.0599
     15 O          -2.8218   -6.8531   -1.4181 O.3     1  UNL1       -0.3912
     16 C          -1.5158   -1.6051    1.2150 C.3     1  UNL1       -0.0469
     17 C          -0.2900   -0.7264    1.3135 C.3     1  UNL1       -0.0200
     18 C           0.0021   -0.0041    0.0020 C.3     1  UNL1        0.1091
     19 C          -0.2985   -0.7130   -1.3068 C.3     1  UNL1        0.0045
     20 C           0.9975   -1.2733   -1.8944 C.3     1  UNL1       -0.0220
     21 C           1.9228   -0.1168   -2.1960 C.3     1  UNL1        0.1074
     22 C           2.0557    0.8814   -1.3042 C.2     1  UNL1        0.1814
     23 C           1.2899    0.8516   -0.0057 C.3     1  UNL1        0.1478
     24 H           1.8826    0.5686    0.7484 H       1  UNL1        0.0706
     25 O          -0.0173    1.4257    0.0099 O.3     1  UNL1       -0.3562
     26 O           2.8799    1.9163   -1.5735 O.2     1  UNL1       -0.2932
     27 C           2.6553   -0.0841   -3.4260 C.1     1  UNL1        0.0736
     28 N           3.2363   -0.0582   -4.4018 N.1     1  UNL1       -0.1958
     29 C          -0.7740    0.3671   -2.2805 C.3     1  UNL1       -0.0565
     30 H          -0.7712   -5.6048   -0.1648 H       1  UNL1        0.0236
     31 H          -0.7218   -5.7527   -1.9379 H       1  UNL1        0.0236
     32 H          -0.1639   -4.2553   -1.1539 H       1  UNL1        0.0236
     33 H          -2.3639   -4.3609   -3.3363 H       1  UNL1        0.0271
     34 H          -3.4296   -3.2056   -2.4913 H       1  UNL1        0.0271
     35 H          -1.4274   -2.0471   -3.3883 H       1  UNL1        0.0268
     36 H          -0.3631   -3.1661   -2.5136 H       1  UNL1        0.0268
     37 H          -1.6943   -4.8500    1.4755 H       1  UNL1        0.0269
     38 H          -3.1892   -4.0106    2.0050 H       1  UNL1        0.0269
     39 H          -4.5834   -5.4873    0.8244 H       1  UNL1        0.0290
     40 H          -3.1922   -6.5978    0.9799 H       1  UNL1        0.0290
     41 H          -3.4297   -7.5943   -1.2910 H       1  UNL1        0.2098
     42 H          -2.3818   -0.9622    1.0575 H       1  UNL1        0.0269
     43 H          -1.6461   -2.1748    2.1351 H       1  UNL1        0.0269
     44 H           0.5504   -1.3758    1.5588 H       1  UNL1        0.0294
     45 H          -0.4149    0.0102    2.1072 H       1  UNL1        0.0294
     46 H           1.4684   -1.9420   -1.1738 H       1  UNL1        0.0288
     47 H           0.7789   -1.8184   -2.8126 H       1  UNL1        0.0288
     48 H           1.4153    0.6002   -2.6738 H       1  UNL1        0.0533
     49 H           0.0120    1.1111   -2.4100 H       1  UNL1        0.0236
     50 H          -1.0055   -0.0881   -3.2434 H       1  UNL1        0.0236
     51 H          -1.6673    0.8480   -1.8818 H       1  UNL1        0.0236
@<TRIPOS>BOND
     1     1     2    1
     2     1    30    1
     3     1    31    1
     4     1    32    1
     5     2     9    1
     6     2    13    1
     7     2     3    1
     8     3     4    1
     9     3    33    1
    10     3    34    1
    11     4     5    1
    12     4    35    1
    13     4    36    1
    14     5     6    1
    15     5    19    1
    16     5     7    1
    17     7     8    1
    18     7     9    1
    19     7    16    1
    20     9    10    1
    21     9    11    1
    22    11    12    1
    23    11    37    1
    24    11    38    1
    25    12    13    1
    26    12    39    1
    27    12    40    1
    28    13    14    1
    29    13    15    1
    30    15    41    1
    31    16    17    1
    32    16    42    1
    33    16    43    1
    34    17    18    1
    35    17    44    1
    36    17    45    1
    37    18    23    1
    38    18    25    1
    39    18    19    1
    40    19    20    1
    41    19    29    1
    42    20    21    1
    43    20    46    1
    44    20    47    1
    45    21    27    1
    46    21    48    1
    47    21    22    1
    48    22    23    1
    49    22    26    2
    50    23    25    1
    51    23    24    1
    52    27    28    3
    53    29    49    1
    54    29    50    1
    55    29    51    1
