@<TRIPOS>MOLECULE
ZINC00057204
 40 42 0 0 0
SMALL
GASTEIGER

@<TRIPOS>ATOM
      1 C          -0.0167    1.3781    0.0096 C.ar    1  UNL1       -0.0617
      2 C           1.1709    2.0855    0.0021 C.ar    1  UNL1       -0.0615
      3 C           2.3773    1.4107   -0.0136 C.ar    1  UNL1       -0.0571
      4 C           2.3960    0.0285   -0.0217 C.ar    1  UNL1       -0.0302
      5 C           1.2084   -0.6789   -0.0136 C.ar    1  UNL1       -0.0571
      6 C           0.0021   -0.0041    0.0020 C.ar    1  UNL1       -0.0615
      7 C           3.7112   -0.7071   -0.0387 C.3     1  UNL1        0.0378
      8 N           4.1236   -0.9381   -1.4254 N.pl3   1  UNL1       -0.3144
      9 C           3.7104   -2.1608   -2.1185 C.3     1  UNL1        0.1113
     10 C           2.3950   -1.9237   -2.8145 C.2     1  UNL1        0.2560
     11 C           0.5306   -0.8731   -3.5399 C.3     1  UNL1        0.1197
     12 C           0.5142   -2.3183   -4.0781 C.3     1  UNL1        0.1150
     13 N           1.7631   -2.8868   -3.5429 N.pl3   1  UNL1       -0.2356
     14 C           4.9107    0.0075   -2.0866 C.ar    1  UNL1        0.0305
     15 C           5.2985    1.1701   -1.4328 C.ar    1  UNL1       -0.0406
     16 C           6.0808    2.1008   -2.0880 C.ar    1  UNL1       -0.0600
     17 C           6.4692    1.8812   -3.3969 C.ar    1  UNL1       -0.0616
     18 C           6.0804    0.7273   -4.0525 C.ar    1  UNL1       -0.0600
     19 C           5.3026   -0.2099   -3.4015 C.ar    1  UNL1       -0.0406
     20 H          -0.9592    1.9054    0.0170 H       1  UNL1        0.0618
     21 H           1.1563    3.1654    0.0081 H       1  UNL1        0.0618
     22 H           3.3051    1.9634   -0.0195 H       1  UNL1        0.0621
     23 H           1.2231   -1.7587   -0.0199 H       1  UNL1        0.0621
     24 H          -0.9258   -0.5567    0.0079 H       1  UNL1        0.0618
     25 H           4.4678   -0.1105    0.4708 H       1  UNL1        0.0513
     26 H           3.5989   -1.6640    0.4711 H       1  UNL1        0.0513
     27 H           4.4666   -2.4347   -2.8542 H       1  UNL1        0.0587
     28 H           3.5982   -2.9683   -1.3950 H       1  UNL1        0.0587
     29 H           0.5456   -0.1584   -4.3627 H       1  UNL1        0.0782
     30 H          -0.3303   -0.6951   -2.8954 H       1  UNL1        0.0782
     31 H           0.5246   -2.3236   -5.1681 H       1  UNL1        0.0764
     32 H          -0.3505   -2.8634   -3.6998 H       1  UNL1        0.0764
     33 H           2.0812   -3.7922   -3.6841 H       1  UNL1        0.2911
     34 H           4.9918    1.3443   -0.4120 H       1  UNL1        0.0636
     35 H           6.3861    3.0030   -1.5789 H       1  UNL1        0.0618
     36 H           7.0772    2.6126   -3.9084 H       1  UNL1        0.0618
     37 H           6.3858    0.5587   -5.0746 H       1  UNL1        0.0618
     38 H           4.9990   -1.1107   -3.9141 H       1  UNL1        0.0636
     39 N           1.7789   -0.7972   -2.7624 N.2     1  UNL1       -0.2744
     40 H           2.1080    0.0322   -2.2545 H       1  UNL1        0.3037
@<TRIPOS>UNITY_ATOM_ATTR
39 1
charge 1
@<TRIPOS>BOND
     1     1     6   ar
     2     1     2   ar
     3     1    20    1
     4     2     3   ar
     5     2    21    1
     6     3     4   ar
     7     3    22    1
     8     4     5   ar
     9     4     7    1
    10     5     6   ar
    11     5    23    1
    12     6    24    1
    13     7     8    1
    14     7    25    1
    15     7    26    1
    16     8     9    1
    17     8    14    1
    18     9    10    1
    19     9    27    1
    20     9    28    1
    21    10    13    1
    22    10    39    2
    23    11    12    1
    24    11    29    1
    25    11    30    1
    26    11    39    1
    27    12    13    1
    28    12    31    1
    29    12    32    1
    30    13    33    1
    31    14    19   ar
    32    14    15   ar
    33    15    16   ar
    34    15    34    1
    35    16    17   ar
    36    16    35    1
    37    17    18   ar
    38    17    36    1
    39    18    19   ar
    40    18    37    1
    41    19    38    1
    42    39    40    1
