@<TRIPOS>MOLECULE
ZINC03831459
 80 83 0 0 0
SMALL
GASTEIGER

@<TRIPOS>ATOM
      1 C           3.3241    7.2300   -0.6788 C.3     1  UNL1       -0.0650
      2 C           4.2446    6.2796    0.0896 C.3     1  UNL1       -0.0528
      3 C           3.6466    5.9945    1.4688 C.3     1  UNL1       -0.0389
      4 H           4.3396    5.3821    2.0457 H       1  UNL1        0.0303
      5 C           2.3210    5.2483    1.3055 C.3     1  UNL1       -0.0497
      6 C           2.5822    3.8741    0.6856 C.3     1  UNL1       -0.0499
      7 C           1.2565    3.1279    0.5224 C.3     1  UNL1       -0.0405
      8 H           0.7249    3.1192    1.4739 H       1  UNL1        0.0301
      9 C           0.4014    3.8322   -0.5330 C.3     1  UNL1       -0.0621
     10 C           1.5308    1.6958    0.0807 C.3     1  UNL1       -0.0328
     11 H           2.2872    1.2315    0.7091 H       1  UNL1        0.0309
     12 C           1.9795    1.6767   -1.4048 C.3     1  UNL1       -0.0492
     13 C           0.7509    1.2107   -2.2306 C.3     1  UNL1       -0.0492
     14 C          -0.4115    1.2930   -1.2291 C.3     1  UNL1       -0.0320
     15 H          -0.6903    2.3643   -1.1344 H       1  UNL1        0.0309
     16 C           0.2556    0.8312    0.0806 C.3     1  UNL1       -0.0259
     17 C          -0.6555    0.9806    1.2680 C.3     1  UNL1       -0.0468
     18 C          -2.1279    0.7968    0.8615 C.3     1  UNL1       -0.0486
     19 C          -2.2406   -0.1472   -0.3270 C.3     1  UNL1       -0.0285
     20 H          -1.6905   -1.0673   -0.1138 H       1  UNL1        0.0312
     21 C          -1.6523    0.5296   -1.5727 C.3     1  UNL1       -0.0307
     22 H          -2.4082    1.2478   -1.9515 H       1  UNL1        0.0309
     23 C          -1.4701   -0.5500   -2.6384 C.3     1  UNL1       -0.0311
     24 C          -2.8259   -1.1652   -2.8812 C.2     1  UNL1       -0.0839
     25 C          -3.7883   -1.1452   -2.0128 C.2     1  UNL1       -0.0648
     26 C          -3.6721   -0.5655   -0.6221 C.3     1  UNL1       -0.0078
     27 C          -4.6625    0.5834   -0.4897 C.3     1  UNL1       -0.0413
     28 C          -5.5662    0.6415   -1.7219 C.3     1  UNL1       -0.0258
     29 C          -6.2088   -0.7073   -2.0261 C.3     1  UNL1        0.0590
     30 H          -6.8861   -0.5951   -2.8787 H       1  UNL1        0.0596
     31 C          -5.1352   -1.7459   -2.3770 C.3     1  UNL1       -0.0051
     32 O          -6.9628   -1.1522   -0.8972 O.3     1  UNL1       -0.3915
     33 C          -4.0535   -1.6572    0.3846 C.3     1  UNL1       -0.0556
     34 C           0.7417   -0.6262   -0.0207 C.3     1  UNL1       -0.0590
     35 C           3.4017    7.3151    2.2014 C.3     1  UNL1       -0.0439
     36 C           2.9104    7.0271    3.6214 C.3     1  UNL1       -0.0624
     37 C           4.7058    8.1127    2.2649 C.3     1  UNL1       -0.0624
     38 H           2.3208    6.8063   -0.7243 H       1  UNL1        0.0230
     39 H           3.2890    8.1929   -0.1692 H       1  UNL1        0.0230
     40 H           3.7066    7.3677   -1.6901 H       1  UNL1        0.0230
     41 H           5.2256    6.7399    0.2070 H       1  UNL1        0.0265
     42 H           4.3453    5.3455   -0.4629 H       1  UNL1        0.0265
     43 H           1.6596    5.8206    0.6550 H       1  UNL1        0.0268
     44 H           1.8517    5.1234    2.2814 H       1  UNL1        0.0268
     45 H           3.2435    3.3018    1.3362 H       1  UNL1        0.0268
     46 H           3.0514    3.9990   -0.2903 H       1  UNL1        0.0268
     47 H           0.6572    3.4507   -1.5215 H       1  UNL1        0.0233
     48 H          -0.6530    3.6426   -0.3320 H       1  UNL1        0.0233
     49 H           0.5909    4.9050   -0.4974 H       1  UNL1        0.0233
     50 H           2.2786    2.6788   -1.7124 H       1  UNL1        0.0268
     51 H           2.8080    0.9825   -1.5357 H       1  UNL1        0.0268
     52 H           0.5767    1.8944   -3.0662 H       1  UNL1        0.0268
     53 H           0.8884    0.1984   -2.6011 H       1  UNL1        0.0268
     54 H          -0.4024    0.2094    2.0158 H       1  UNL1        0.0271
     55 H          -0.5457    1.9475    1.7611 H       1  UNL1        0.0271
     56 H          -2.5478    1.7716    0.5992 H       1  UNL1        0.0268
     57 H          -2.6844    0.3970    1.7117 H       1  UNL1        0.0268
     58 H          -1.1065   -0.1052   -3.5629 H       1  UNL1        0.0310
     59 H          -0.7829   -1.3173   -2.2944 H       1  UNL1        0.0310
     60 H          -2.9999   -1.6466   -3.8305 H       1  UNL1        0.0572
     61 H          -4.1239    1.5275   -0.4009 H       1  UNL1        0.0274
     62 H          -5.2749    0.4368    0.4010 H       1  UNL1        0.0274
     63 H          -4.9781    0.9636   -2.5820 H       1  UNL1        0.0290
     64 H          -6.3543    1.3777   -1.5448 H       1  UNL1        0.0290
     65 H          -5.1651   -1.9546   -3.4506 H       1  UNL1        0.0335
     66 H          -5.3066   -2.6697   -1.8287 H       1  UNL1        0.0335
     67 H          -7.4189   -1.9935   -1.0357 H       1  UNL1        0.2098
     68 H          -3.3778   -2.5053    0.2743 H       1  UNL1        0.0238
     69 H          -3.9767   -1.2607    1.3970 H       1  UNL1        0.0238
     70 H          -5.0773   -1.9816    0.1981 H       1  UNL1        0.0238
     71 H           1.4795   -0.8180    0.7584 H       1  UNL1        0.0235
     72 H          -0.1047   -1.3011    0.1064 H       1  UNL1        0.0235
     73 H           1.1944   -0.7911   -0.9984 H       1  UNL1        0.0235
     74 H           2.6481    7.8931    1.6664 H       1  UNL1        0.0298
     75 H           2.7359    7.9680    4.1434 H       1  UNL1        0.0232
     76 H           1.9813    6.4589    3.5762 H       1  UNL1        0.0232
     77 H           3.6640    6.4492    4.1564 H       1  UNL1        0.0232
     78 H           4.9985    8.4112    1.2583 H       1  UNL1        0.0232
     79 H           4.5589    9.0011    2.8791 H       1  UNL1        0.0232
     80 H           5.4892    7.4939    2.7025 H       1  UNL1        0.0232
@<TRIPOS>BOND
     1     1     2    1
     2     1    38    1
     3     1    39    1
     4     1    40    1
     5     2     3    1
     6     2    41    1
     7     2    42    1
     8     3     4    1
     9     3     5    1
    10     3    35    1
    11     5     6    1
    12     5    43    1
    13     5    44    1
    14     6     7    1
    15     6    45    1
    16     6    46    1
    17     7     8    1
    18     7     9    1
    19     7    10    1
    20     9    47    1
    21     9    48    1
    22     9    49    1
    23    10    11    1
    24    10    16    1
    25    10    12    1
    26    12    13    1
    27    12    50    1
    28    12    51    1
    29    13    14    1
    30    13    52    1
    31    13    53    1
    32    14    15    1
    33    14    21    1
    34    14    16    1
    35    16    17    1
    36    16    34    1
    37    17    18    1
    38    17    54    1
    39    17    55    1
    40    18    19    1
    41    18    56    1
    42    18    57    1
    43    19    20    1
    44    19    26    1
    45    19    21    1
    46    21    22    1
    47    21    23    1
    48    23    24    1
    49    23    58    1
    50    23    59    1
    51    24    25    2
    52    24    60    1
    53    25    31    1
    54    25    26    1
    55    26    27    1
    56    26    33    1
    57    27    28    1
    58    27    61    1
    59    27    62    1
    60    28    29    1
    61    28    63    1
    62    28    64    1
    63    29    30    1
    64    29    31    1
    65    29    32    1
    66    31    65    1
    67    31    66    1
    68    32    67    1
    69    33    68    1
    70    33    69    1
    71    33    70    1
    72    34    71    1
    73    34    72    1
    74    34    73    1
    75    35    36    1
    76    35    37    1
    77    35    74    1
    78    36    75    1
    79    36    76    1
    80    36    77    1
    81    37    78    1
    82    37    79    1
    83    37    80    1
