@<TRIPOS>MOLECULE
ZINC03830710
 58 58 0 0 0
SMALL
GASTEIGER

@<TRIPOS>ATOM
      1 C          -1.9943   -0.6754    1.8062 C.3     1  UNL1       -0.0653
      2 C          -1.6955   -2.1450    1.5030 C.3     1  UNL1       -0.0559
      3 C          -0.8601   -2.2424    0.2249 C.3     1  UNL1       -0.0532
      4 C          -0.5613   -3.7120   -0.0783 C.3     1  UNL1       -0.0504
      5 C           0.2741   -3.8093   -1.3564 C.3     1  UNL1       -0.0232
      6 C           0.5729   -5.2789   -1.6597 C.3     1  UNL1        0.0734
      7 H           1.0483   -5.7392   -0.7935 H       1  UNL1        0.0637
      8 C           1.4968   -5.3691   -2.8469 C.2     1  UNL1       -0.0595
      9 C           2.6690   -5.9405   -2.7227 C.2     1  UNL1       -0.0796
     10 C           3.5929   -6.0306   -3.9099 C.3     1  UNL1        0.0087
     11 H           3.1263   -5.5716   -4.7814 H       1  UNL1        0.0372
     12 C           4.9292   -5.3276   -3.5942 C.3     1  UNL1        0.0641
     13 H           5.1008   -5.2999   -2.5181 H       1  UNL1        0.0600
     14 C           5.9958   -6.2088   -4.2906 C.3     1  UNL1        0.0001
     15 C           5.4589   -7.6430   -4.0585 C.3     1  UNL1        0.0613
     16 H           5.7160   -7.9892   -3.0574 H       1  UNL1        0.0597
     17 C           3.9296   -7.5028   -4.2051 C.3     1  UNL1       -0.0029
     18 H           3.4248   -8.1520   -3.4897 H       1  UNL1        0.0335
     19 C           3.5046   -7.8620   -5.6303 C.3     1  UNL1       -0.0290
     20 C           3.6527   -9.3470   -5.8394 C.2     1  UNL1       -0.0876
     21 C           2.6381  -10.0515   -6.2758 C.2     1  UNL1       -0.0879
     22 C           1.3825   -9.3579   -6.7380 C.3     1  UNL1       -0.0344
     23 C           1.0149   -9.8492   -8.1395 C.3     1  UNL1       -0.0445
     24 C          -0.2599   -9.1451   -8.6087 C.3     1  UNL1       -0.0129
     25 C          -0.6220   -9.6290   -9.9892 C.2     1  UNL1        0.0418
     26 O           0.0687  -10.4526  -10.5412 O.co2   1  UNL1       -0.5498
     27 O           5.9762   -8.5367   -5.0463 O.3     1  UNL1       -0.3914
     28 O           4.9398   -4.0061   -4.1377 O.3     1  UNL1       -0.3911
     29 O          -0.6473   -5.9625   -1.9526 O.3     1  UNL1       -0.3878
     30 H          -1.0577   -0.1348    1.9423 H       1  UNL1        0.0230
     31 H          -2.5487   -0.2385    0.9756 H       1  UNL1        0.0230
     32 H          -2.5895   -0.6060    2.7167 H       1  UNL1        0.0230
     33 H          -1.1412   -2.5819    2.3336 H       1  UNL1        0.0263
     34 H          -2.6322   -2.6856    1.3669 H       1  UNL1        0.0263
     35 H          -1.4145   -1.8054   -0.6057 H       1  UNL1        0.0265
     36 H           0.0765   -1.7017    0.3610 H       1  UNL1        0.0265
     37 H          -0.0070   -4.1489    0.7523 H       1  UNL1        0.0266
     38 H          -1.4979   -4.2526   -0.2144 H       1  UNL1        0.0266
     39 H          -0.2802   -3.3724   -2.1870 H       1  UNL1        0.0293
     40 H           1.2108   -3.2687   -1.2203 H       1  UNL1        0.0293
     41 H           1.1924   -4.9627   -3.8000 H       1  UNL1        0.0594
     42 H           2.9734   -6.3469   -1.7695 H       1  UNL1        0.0573
     43 H           6.0475   -5.9834   -5.3558 H       1  UNL1        0.0315
     44 H           6.9704   -6.0803   -3.8198 H       1  UNL1        0.0315
     45 H           2.4639   -7.5757   -5.7822 H       1  UNL1        0.0311
     46 H           4.1355   -7.3301   -6.3425 H       1  UNL1        0.0311
     47 H           4.5953   -9.8306   -5.6295 H       1  UNL1        0.0569
     48 H           2.7014  -11.1292   -6.3044 H       1  UNL1        0.0569
     49 H           0.5685   -9.5830   -6.0489 H       1  UNL1        0.0307
     50 H           1.5503   -8.2812   -6.7628 H       1  UNL1        0.0307
     51 H           1.8289   -9.6241   -8.8286 H       1  UNL1        0.0272
     52 H           0.8471  -10.9259   -8.1147 H       1  UNL1        0.0272
     53 H          -1.0739   -9.3702   -7.9197 H       1  UNL1        0.0325
     54 H          -0.0921   -8.0684   -8.6335 H       1  UNL1        0.0325
     55 H           6.9397   -8.6176   -5.0375 H       1  UNL1        0.2098
     56 H           5.7572   -3.5178   -3.9688 H       1  UNL1        0.2098
     57 H          -1.1251   -5.6055   -2.7138 H       1  UNL1        0.2102
     58 O          -1.7117   -9.1451  -10.6056 O.co2   1  UNL1       -0.5498
@<TRIPOS>UNITY_ATOM_ATTR
58 1
charge -1
@<TRIPOS>BOND
     1     1     2    1
     2     1    30    1
     3     1    31    1
     4     1    32    1
     5     2     3    1
     6     2    33    1
     7     2    34    1
     8     3     4    1
     9     3    35    1
    10     3    36    1
    11     4     5    1
    12     4    37    1
    13     4    38    1
    14     5     6    1
    15     5    39    1
    16     5    40    1
    17     6     7    1
    18     6     8    1
    19     6    29    1
    20     8     9    2
    21     8    41    1
    22     9    10    1
    23     9    42    1
    24    10    11    1
    25    10    17    1
    26    10    12    1
    27    12    13    1
    28    12    14    1
    29    12    28    1
    30    14    15    1
    31    14    43    1
    32    14    44    1
    33    15    16    1
    34    15    17    1
    35    15    27    1
    36    17    18    1
    37    17    19    1
    38    19    20    1
    39    19    45    1
    40    19    46    1
    41    20    21    2
    42    20    47    1
    43    21    22    1
    44    21    48    1
    45    22    23    1
    46    22    49    1
    47    22    50    1
    48    23    24    1
    49    23    51    1
    50    23    52    1
    51    24    25    1
    52    24    53    1
    53    24    54    1
    54    25    26   ar
    55    25    58   ar
    56    27    55    1
    57    28    56    1
    58    29    57    1
