@<TRIPOS>MOLECULE
ZINC00002002
 46 47 0 0 0
SMALL
GASTEIGER

@<TRIPOS>ATOM
      1 C           4.0585    5.9783   -1.2406 C.3     1  UNL1       -0.0433
      2 C           3.1704    7.3055   -3.0606 C.3     1  UNL1       -0.0433
      3 H           2.3726    7.9934   -3.3406 H       1  UNL1        0.0777
      4 H           4.1302    7.8187   -3.1206 H       1  UNL1        0.0777
      5 H           3.1708    6.4535   -3.7405 H       1  UNL1        0.0777
      6 C           1.6646    6.1371   -1.5673 C.3     1  UNL1       -0.0161
      7 C           1.3566    5.8834   -0.0903 C.3     1  UNL1        0.0577
      8 N           0.0730    5.1872    0.0283 N.pl3   1  UNL1       -0.2686
      9 C          -1.1680    5.9554    0.1543 C.3     1  UNL1        0.0426
     10 C          -1.4569    6.2076    1.6117 C.ar    1  UNL1       -0.0298
     11 C          -2.2200    5.3059    2.3302 C.ar    1  UNL1       -0.0536
     12 C          -2.4814    5.5319    3.6677 C.ar    1  UNL1       -0.0196
     13 C          -1.9871    6.6707    4.2871 C.ar    1  UNL1        0.1201
     14 C          -1.2264    7.5768    3.5625 C.ar    1  UNL1       -0.0196
     15 C          -0.9631    7.3433    2.2267 C.ar    1  UNL1       -0.0536
     16 O          -2.2472    6.8979    5.6015 O.3     1  UNL1       -0.4951
     17 C          -3.0369    5.9224    6.2846 C.3     1  UNL1        0.0788
     18 C           0.0327    3.7978    0.0212 C.ar    1  UNL1        0.2722
     19 C          -1.1952    3.1436    0.0294 C.ar    1  UNL1        0.0264
     20 C          -1.2206    1.7609    0.0173 C.ar    1  UNL1       -0.0486
     21 C          -0.0126    1.0758    0.0080 C.ar    1  UNL1        0.0022
     22 C           1.1691    1.7890    0.0005 C.ar    1  UNL1        0.1710
     23 H           4.0911    5.0782   -1.8545 H       1  UNL1        0.0777
     24 H           4.9994    6.5196   -1.3392 H       1  UNL1        0.0777
     25 H           3.9062    5.7013   -0.1974 H       1  UNL1        0.0777
     26 H           1.7172    5.1855   -2.0962 H       1  UNL1        0.0830
     27 H           0.8764    6.7515   -2.0025 H       1  UNL1        0.0830
     28 H           1.3039    6.8351    0.4385 H       1  UNL1        0.0518
     29 H           2.1447    5.2690    0.3449 H       1  UNL1        0.0518
     30 H          -1.0602    6.9077   -0.3648 H       1  UNL1        0.0515
     31 H          -1.9904    5.3922   -0.2869 H       1  UNL1        0.0515
     32 H          -2.6083    4.4218    1.8465 H       1  UNL1        0.0622
     33 H          -3.0739    4.8250    4.2296 H       1  UNL1        0.0654
     34 H          -0.8408    8.4642    4.0424 H       1  UNL1        0.0654
     35 H          -0.3707    8.0482    1.6623 H       1  UNL1        0.0622
     36 H          -2.5327    4.9567    6.2485 H       1  UNL1        0.0660
     37 H          -3.1691    6.2246    7.3235 H       1  UNL1        0.0660
     38 H          -4.0114    5.8417    5.8029 H       1  UNL1        0.0660
     39 H          -2.1160    3.7079    0.0405 H       1  UNL1        0.0698
     40 H          -2.1588    1.2259    0.0192 H       1  UNL1        0.0622
     41 H           0.0021   -0.0041    0.0020 H       1  UNL1        0.0677
     42 H           2.1107    1.2603   -0.0113 H       1  UNL1        0.1376
     43 N           2.9508    6.8582   -1.6691 N.4     1  UNL1        0.2320
     44 H           2.9215    7.6806   -1.0551 H       1  UNL1        0.2028
     45 N           1.2320    3.1475    0.0068 N.ar    1  UNL1       -0.1981
     46 H           2.1262    3.6522    0.0010 H       1  UNL1        0.4542
@<TRIPOS>UNITY_ATOM_ATTR
43 1
charge 1
45 1
charge 1
@<TRIPOS>BOND
     1     1    23    1
     2     1    24    1
     3     1    25    1
     4     1    43    1
     5     2     3    1
     6     2     4    1
     7     2     5    1
     8     2    43    1
     9     6     7    1
    10     6    26    1
    11     6    27    1
    12     6    43    1
    13     7     8    1
    14     7    28    1
    15     7    29    1
    16     8     9    1
    17     8    18    1
    18     9    10    1
    19     9    30    1
    20     9    31    1
    21    10    15   ar
    22    10    11   ar
    23    11    12   ar
    24    11    32    1
    25    12    13   ar
    26    12    33    1
    27    13    14   ar
    28    13    16    1
    29    14    15   ar
    30    14    34    1
    31    15    35    1
    32    16    17    1
    33    17    36    1
    34    17    37    1
    35    17    38    1
    36    18    19   ar
    37    18    45   ar
    38    19    20   ar
    39    19    39    1
    40    20    21   ar
    41    20    40    1
    42    21    22   ar
    43    21    41    1
    44    22    42    1
    45    22    45   ar
    46    43    44    1
    47    45    46    1
