@<TRIPOS>MOLECULE
ZINC00308379
 30 30 0 0 0
SMALL
GASTEIGER

@<TRIPOS>ATOM
      1 C           4.2450   -4.7994    5.0672 C.3     1  UNL1       -0.0626
      2 C           2.8782   -4.3061    4.5881 C.3     1  UNL1       -0.0446
      3 C           1.9778   -4.0450    5.7972 C.3     1  UNL1       -0.0626
      4 C           3.0534   -3.0105    3.7935 C.3     1  UNL1       -0.0236
      5 C           1.7090   -2.5946    3.1932 C.3     1  UNL1        0.0993
      6 H           0.9694   -2.4437    3.9795 H       1  UNL1        0.0594
      7 C           1.8651   -1.3416    2.3545 C.2     1  UNL1        0.2416
      8 O           2.2373   -0.2506    2.7302 O.2     1  UNL1       -0.2732
      9 N           1.5024   -1.6921    1.1048 N.am    1  UNL1       -0.2482
     10 C           1.1496   -2.9808    1.0365 C.2     1  UNL1        0.1401
     11 S           0.6409   -3.7532   -0.4043 S.2     1  UNL1       -0.0183
     12 N           1.2392   -3.6020    2.2264 N.am    1  UNL1       -0.3148
     13 C           1.5007   -0.7766   -0.0389 C.3     1  UNL1        0.0393
     14 C           0.1539   -0.1088   -0.1458 C.2     1  UNL1       -0.0735
     15 C           0.0707    1.1984   -0.1648 C.2     1  UNL1       -0.1011
     16 H           4.8716   -5.0274    4.2050 H       1  UNL1        0.0232
     17 H           4.7211   -4.0241    5.6675 H       1  UNL1        0.0232
     18 H           4.1160   -5.6980    5.6704 H       1  UNL1        0.0232
     19 H           2.4212   -5.0638    3.9516 H       1  UNL1        0.0296
     20 H           1.0040   -3.6936    5.4560 H       1  UNL1        0.0232
     21 H           1.8529   -4.9681    6.3634 H       1  UNL1        0.0232
     22 H           2.4348   -3.2874    6.4338 H       1  UNL1        0.0232
     23 H           3.7751   -3.1703    2.9924 H       1  UNL1        0.0290
     24 H           3.4143   -2.2238    4.4561 H       1  UNL1        0.0290
     25 H           1.0340   -4.5317    2.4118 H       1  UNL1        0.1485
     26 H           1.7023   -1.3360   -0.9524 H       1  UNL1        0.0512
     27 H           2.2718   -0.0190    0.1009 H       1  UNL1        0.0512
     28 H          -0.7426   -0.7079   -0.2067 H       1  UNL1        0.0582
     29 H           0.9672    1.7976   -0.1039 H       1  UNL1        0.0532
     30 H          -0.8941    1.6770   -0.2458 H       1  UNL1        0.0532
@<TRIPOS>BOND
     1     1     2    1
     2     1    16    1
     3     1    17    1
     4     1    18    1
     5     2     3    1
     6     2     4    1
     7     2    19    1
     8     3    20    1
     9     3    21    1
    10     3    22    1
    11     4     5    1
    12     4    23    1
    13     4    24    1
    14     5     6    1
    15     5    12    1
    16     5     7    1
    17     7     8    2
    18     7     9   am
    19     9    10    1
    20     9    13    1
    21    10    11    2
    22    10    12    1
    23    12    25    1
    24    13    14    1
    25    13    26    1
    26    13    27    1
    27    14    15    2
    28    14    28    1
    29    15    29    1
    30    15    30    1
