@<TRIPOS>MOLECULE
ZINC11592778
 67 70 0 0 0
SMALL
GASTEIGER

@<TRIPOS>ATOM
      1 C         -11.2677    4.2841   -0.2394 C.3     1  UNL1       -0.0587
      2 C          -9.8573    4.7047   -0.6528 C.3     1  UNL1       -0.0212
      3 H          -9.8301    4.9069   -1.7193 H       1  UNL1        0.0343
      4 C          -8.8821    3.5677   -0.3185 C.3     1  UNL1       -0.0432
      5 C          -7.4778    4.1525   -0.4343 C.3     1  UNL1       -0.0308
      6 H          -7.4880    4.8372   -1.3154 H       1  UNL1        0.0308
      7 C          -6.3873    3.1608   -0.6677 C.3     1  UNL1       -0.0292
      8 H          -5.4835    3.7264   -0.9874 H       1  UNL1        0.0310
      9 C          -6.6127    2.0587   -1.7092 C.3     1  UNL1       -0.0463
     10 C          -5.4468    1.0732   -1.4181 C.3     1  UNL1       -0.0161
     11 C          -4.9800    1.3609    0.0331 C.3     1  UNL1        0.1326
     12 C          -6.0201    2.3448    0.5875 C.3     1  UNL1        0.0092
     13 C          -5.5522    3.3055    1.6543 C.3     1  UNL1       -0.0178
     14 C          -6.7223    4.2546    2.0017 C.3     1  UNL1        0.0600
     15 H          -7.5129    3.6672    2.4491 H       1  UNL1        0.0596
     16 C          -7.1919    5.0268    0.7866 C.3     1  UNL1        0.0007
     17 H          -6.3232    5.6581    0.4885 H       1  UNL1        0.0340
     18 C          -8.3053    6.0141    1.0360 C.3     1  UNL1        0.0133
     19 C          -9.4653    5.9521    0.1028 C.2     1  UNL1       -0.0531
     20 C         -10.2407    7.0339   -0.0983 C.2     1  UNL1       -0.0146
     21 C          -9.9192    8.3000    0.5934 C.2     1  UNL1        0.1787
     22 O         -10.7624    9.1830    0.7349 O.2     1  UNL1       -0.2879
     23 C          -8.5449    8.4732    1.1142 C.2     1  UNL1       -0.0180
     24 C          -7.7564    7.4002    1.2197 C.2     1  UNL1       -0.0701
     25 C          -8.9226    5.6781    2.3953 C.3     1  UNL1       -0.0520
     26 O          -6.2097    5.1740    2.9810 O.3     1  UNL1       -0.3914
     27 C          -7.1918    1.5051    1.1042 C.3     1  UNL1       -0.0562
     28 C          -3.6001    1.9537    0.0297 C.2     1  UNL1        0.2022
     29 O          -3.4581    3.1529    0.0356 O.2     1  UNL1       -0.2907
     30 C          -2.3926    1.0520    0.0191 C.3     1  UNL1        0.1530
     31 O          -1.1857    1.8593    0.0178 O.3     1  UNL1       -0.4568
     32 C          -0.0143    1.2041    0.0087 C.2     1  UNL1        0.3078
     33 O           0.0021   -0.0041    0.0020 O.2     1  UNL1       -0.2508
     34 C           1.2804    1.9752    0.0004 C.3     1  UNL1        0.0500
     35 C           2.4566    0.9969   -0.0160 C.3     1  UNL1       -0.0031
     36 C           3.7513    1.7681   -0.0243 C.2     1  UNL1        0.0423
     37 O           3.7350    2.9763   -0.0176 O.co2   1  UNL1       -0.5498
     38 O          -5.0010    0.1546    0.8009 O.3     1  UNL1       -0.3804
     39 H         -11.9686    5.0860   -0.4714 H       1  UNL1        0.0235
     40 H         -11.5525    3.3837   -0.7837 H       1  UNL1        0.0235
     41 H         -11.2875    4.0827    0.8316 H       1  UNL1        0.0235
     42 H          -9.0240    2.7475   -1.0177 H       1  UNL1        0.0274
     43 H          -9.0808    3.2353    0.7009 H       1  UNL1        0.0274
     44 H          -6.5189    2.4670   -2.7187 H       1  UNL1        0.0269
     45 H          -7.5772    1.5759   -1.5855 H       1  UNL1        0.0269
     46 H          -4.6248    1.2546   -2.1130 H       1  UNL1        0.0297
     47 H          -5.7918    0.0436   -1.5049 H       1  UNL1        0.0297
     48 H          -4.7199    3.9141    1.2964 H       1  UNL1        0.0297
     49 H          -5.2559    2.7619    2.5521 H       1  UNL1        0.0297
     50 H         -11.1252    6.9672   -0.7389 H       1  UNL1        0.0656
     51 H          -8.1606    9.4734    1.3350 H       1  UNL1        0.0653
     52 H          -6.6916    7.5269    1.4368 H       1  UNL1        0.0582
     53 H          -8.1607    5.7597    3.1704 H       1  UNL1        0.0241
     54 H          -9.7336    6.3746    2.6082 H       1  UNL1        0.0241
     55 H          -9.3132    4.6607    2.3754 H       1  UNL1        0.0241
     56 H          -5.8896    4.7500    3.7890 H       1  UNL1        0.2098
     57 H          -6.8452    0.8509    1.9041 H       1  UNL1        0.0236
     58 H          -7.9709    2.1648    1.4862 H       1  UNL1        0.0236
     59 H          -7.5935    0.9020    0.2899 H       1  UNL1        0.0236
     60 H          -2.4114    0.4793   -0.8005 H       1  UNL1        0.0779
     61 H          -2.4048    0.4181    0.9057 H       1  UNL1        0.0779
     62 H           1.3211    2.6074   -0.8866 H       1  UNL1        0.0381
     63 H           1.3381    2.5978    0.8933 H       1  UNL1        0.0381
     64 H           2.4159    0.3648    0.8710 H       1  UNL1        0.0330
     65 H           2.3989    0.3743   -0.9089 H       1  UNL1        0.0330
     66 H          -4.3971   -0.5280    0.4777 H       1  UNL1        0.2108
     67 O           4.9227    1.1129   -0.0390 O.co2   1  UNL1       -0.5498
@<TRIPOS>UNITY_ATOM_ATTR
67 1
charge -1
@<TRIPOS>BOND
     1     1     2    1
     2     1    39    1
     3     1    40    1
     4     1    41    1
     5     2     3    1
     6     2    19    1
     7     2     4    1
     8     4     5    1
     9     4    42    1
    10     4    43    1
    11     5     6    1
    12     5    16    1
    13     5     7    1
    14     7     8    1
    15     7    12    1
    16     7     9    1
    17     9    10    1
    18     9    44    1
    19     9    45    1
    20    10    11    1
    21    10    46    1
    22    10    47    1
    23    11    12    1
    24    11    28    1
    25    11    38    1
    26    12    13    1
    27    12    27    1
    28    13    14    1
    29    13    48    1
    30    13    49    1
    31    14    15    1
    32    14    16    1
    33    14    26    1
    34    16    17    1
    35    16    18    1
    36    18    24    1
    37    18    19    1
    38    18    25    1
    39    19    20    2
    40    20    21    1
    41    20    50    1
    42    21    22    2
    43    21    23    1
    44    23    24    2
    45    23    51    1
    46    24    52    1
    47    25    53    1
    48    25    54    1
    49    25    55    1
    50    26    56    1
    51    27    57    1
    52    27    58    1
    53    27    59    1
    54    28    29    2
    55    28    30    1
    56    30    31    1
    57    30    60    1
    58    30    61    1
    59    31    32    1
    60    32    33    2
    61    32    34    1
    62    34    35    1
    63    34    62    1
    64    34    63    1
    65    35    36    1
    66    35    64    1
    67    35    65    1
    68    36    37   ar
    69    36    67   ar
    70    38    66    1
