@<TRIPOS>MOLECULE
ZINC00001886
 21 21 0 0 0
SMALL
GASTEIGER

@<TRIPOS>ATOM
      1 C          -0.0127    1.0858    0.0080 C.3     1  UNL1       -0.0134
      2 C          -0.7288    1.5792    1.2668 C.3     1  UNL1        0.1623
      3 O          -0.7386    3.0105    1.2826 O.3     1  UNL1       -0.3232
      4 C          -1.2975    3.5630    2.4790 C.3     1  UNL1        0.1623
      5 O          -0.5916    3.0374    3.6079 O.3     1  UNL1       -0.3232
      6 C          -0.5778    1.6068    3.6552 C.3     1  UNL1        0.1623
      7 O          -0.0379    1.1060    2.4277 O.3     1  UNL1       -0.3232
      8 C           0.2918    1.1414    4.8248 C.3     1  UNL1       -0.0134
      9 C          -1.1596    5.0865    2.4527 C.3     1  UNL1       -0.0134
     10 H           0.0021   -0.0041    0.0020 H       1  UNL1        0.0278
     11 H           1.0099    1.4631    0.0003 H       1  UNL1        0.0278
     12 H          -0.5399    1.4469   -0.8751 H       1  UNL1        0.0278
     13 H          -1.7528    1.2057    1.2741 H       1  UNL1        0.0909
     14 H          -2.3512    3.2932    2.5497 H       1  UNL1        0.0909
     15 H          -1.5940    1.2347    3.7855 H       1  UNL1        0.0909
     16 H           1.3067    1.5173    4.6950 H       1  UNL1        0.0278
     17 H          -0.1205    1.5235    5.7587 H       1  UNL1        0.0278
     18 H           0.3088    0.0519    4.8539 H       1  UNL1        0.0278
     19 H          -0.1057    5.3547    2.3783 H       1  UNL1        0.0278
     20 H          -1.6976    5.4852    1.5926 H       1  UNL1        0.0278
     21 H          -1.5772    5.5050    3.3684 H       1  UNL1        0.0278
@<TRIPOS>BOND
     1     1     2    1
     2     1    10    1
     3     1    11    1
     4     1    12    1
     5     2     7    1
     6     2     3    1
     7     2    13    1
     8     3     4    1
     9     4     5    1
    10     4     9    1
    11     4    14    1
    12     5     6    1
    13     6     7    1
    14     6     8    1
    15     6    15    1
    16     8    16    1
    17     8    17    1
    18     8    18    1
    19     9    19    1
    20     9    20    1
    21     9    21    1
