@<TRIPOS>MOLECULE
ZINC01530654
 51 52 0 0 0
SMALL
GASTEIGER

@<TRIPOS>ATOM
      1 C           0.0426    1.1953    2.8547 C.3     1  UNL1       -0.0245
      2 C          -0.5627    1.4930    1.4815 C.3     1  UNL1       -0.0347
      3 C          -1.7260    3.4071    2.4011 C.3     1  UNL1       -0.0318
      4 C          -3.1066    2.7842    2.1844 C.3     1  UNL1       -0.0109
      5 C          -4.0638    3.2747    3.2725 C.3     1  UNL1       -0.0300
      6 C          -5.4444    2.6519    3.0559 C.3     1  UNL1        0.0180
      7 H          -5.7871    2.8708    2.0446 H       1  UNL1        0.0495
      8 C          -6.4323    3.2371    4.0670 C.3     1  UNL1       -0.0467
      9 N          -5.3598    1.2009    3.2394 N.pl3   1  UNL1       -0.3405
     10 C          -6.2805    0.3690    2.6210 C.ar    1  UNL1        0.0465
     11 C          -7.2934    0.8872    1.8289 C.ar    1  UNL1        0.0235
     12 C          -8.1964    0.0282    1.2185 C.ar    1  UNL1        0.1718
     13 C          -7.1825   -1.8423    2.1307 C.ar    1  UNL1        0.2164
     14 C          -6.2195   -1.0355    2.7830 C.ar    1  UNL1        0.0672
     15 C          -5.2293   -1.6362    3.5729 C.ar    1  UNL1       -0.0451
     16 C          -5.2033   -2.9917    3.7053 C.ar    1  UNL1       -0.0424
     17 C          -6.1498   -3.7898    3.0645 C.ar    1  UNL1        0.0472
     18 C          -7.1250   -3.2373    2.2899 C.ar    1  UNL1        0.0286
     19 CL         -6.0845   -5.5139    3.2561 Cl      1  UNL1       -0.0833
     20 C           0.4547    3.6881    1.3870 C.3     1  UNL1       -0.0082
     21 C           1.1682    3.5423    0.0414 C.3     1  UNL1        0.0841
     22 O           0.3873    4.1635   -0.9815 O.3     1  UNL1       -0.3898
     23 H           0.2244    0.1246    2.9473 H       1  UNL1        0.0281
     24 H          -0.6494    1.5151    3.6339 H       1  UNL1        0.0281
     25 H           0.9840    1.7343    2.9614 H       1  UNL1        0.0281
     26 H           0.1290    1.1726    0.7023 H       1  UNL1        0.0812
     27 H          -1.5045    0.9546    1.3751 H       1  UNL1        0.0812
     28 H          -1.3447    3.1143    3.3794 H       1  UNL1        0.0814
     29 H          -1.8056    4.4931    2.3524 H       1  UNL1        0.0814
     30 H          -3.4878    3.0770    1.2062 H       1  UNL1        0.0317
     31 H          -3.0269    1.6982    2.2332 H       1  UNL1        0.0317
     32 H          -3.6826    2.9819    4.2508 H       1  UNL1        0.0285
     33 H          -4.1435    4.3607    3.2238 H       1  UNL1        0.0285
     34 H          -6.4953    4.3166    3.9305 H       1  UNL1        0.0247
     35 H          -7.4159    2.7933    3.9127 H       1  UNL1        0.0247
     36 H          -6.0896    3.0182    5.0783 H       1  UNL1        0.0247
     37 H          -4.6595    0.8221    3.7937 H       1  UNL1        0.1464
     38 H          -7.3768    1.9542    1.6840 H       1  UNL1        0.0695
     39 H          -8.9786    0.4424    0.5997 H       1  UNL1        0.1376
     40 H          -4.4913   -1.0276    4.0741 H       1  UNL1        0.0627
     41 H          -4.4399   -3.4537    4.3137 H       1  UNL1        0.0632
     42 H          -7.8512   -3.8691    1.8002 H       1  UNL1        0.0698
     43 H           0.2455    4.7412    1.5751 H       1  UNL1        0.0837
     44 H           1.0917    3.2969    2.1803 H       1  UNL1        0.0837
     45 H           2.1454    4.0222    0.0945 H       1  UNL1        0.0610
     46 H           1.2948    2.4847   -0.1899 H       1  UNL1        0.0610
     47 H           0.7800    4.1094   -1.8635 H       1  UNL1        0.2096
     48 N          -0.8193    2.9408    1.3309 N.4     1  UNL1        0.2367
     49 H          -1.2641    3.1078    0.4207 H       1  UNL1        0.2034
     50 N          -8.1836   -1.3196    1.3399 N.ar    1  UNL1       -0.2105
     51 H          -8.8765   -1.9158    0.8722 H       1  UNL1        0.4529
@<TRIPOS>UNITY_ATOM_ATTR
48 1
charge 1
50 1
charge 1
@<TRIPOS>BOND
     1     1     2    1
     2     1    23    1
     3     1    24    1
     4     1    25    1
     5     2    26    1
     6     2    27    1
     7     2    48    1
     8     3     4    1
     9     3    28    1
    10     3    29    1
    11     3    48    1
    12     4     5    1
    13     4    30    1
    14     4    31    1
    15     5     6    1
    16     5    32    1
    17     5    33    1
    18     6     7    1
    19     6     8    1
    20     6     9    1
    21     8    34    1
    22     8    35    1
    23     8    36    1
    24     9    10    1
    25     9    37    1
    26    10    14   ar
    27    10    11   ar
    28    11    12   ar
    29    11    38    1
    30    12    39    1
    31    12    50   ar
    32    13    18   ar
    33    13    14   ar
    34    13    50   ar
    35    14    15   ar
    36    15    16   ar
    37    15    40    1
    38    16    17   ar
    39    16    41    1
    40    17    18   ar
    41    17    19    1
    42    18    42    1
    43    20    21    1
    44    20    43    1
    45    20    44    1
    46    20    48    1
    47    21    22    1
    48    21    45    1
    49    21    46    1
    50    22    47    1
    51    48    49    1
    52    50    51    1
