@<TRIPOS>MOLECULE
ZINC03831131
 32 32 0 0 0
SMALL
GASTEIGER

@<TRIPOS>ATOM
      1 C          -3.2931   -0.7547    1.4736 C.3     1  UNL1       -0.0022
      2 C          -3.1928   -2.2812    1.5146 C.3     1  UNL1        0.1231
      3 H          -4.1940   -2.7109    1.5496 H       1  UNL1        0.0674
      4 C          -2.4686   -2.7742    0.2588 C.3     1  UNL1        0.1171
      5 H          -3.0462   -2.5047   -0.6254 H       1  UNL1        0.0649
      6 C          -1.0864   -2.1194    0.1862 C.3     1  UNL1        0.1281
      7 H          -0.5825   -2.4334   -0.7280 H       1  UNL1        0.0678
      8 C          -1.2477   -0.5976    0.1837 C.3     1  UNL1        0.0319
      9 H          -1.8278   -0.2953   -0.6882 H       1  UNL1        0.0901
     10 C          -1.9956    1.2888    1.5039 C.3     1  UNL1       -0.0076
     11 C          -2.9809    1.6924    2.6026 C.3     1  UNL1        0.0841
     12 O          -2.5259    1.1871    3.8595 O.3     1  UNL1       -0.3898
     13 C           0.1322    0.0613    0.1314 C.3     1  UNL1        0.0894
     14 O          -0.0202    1.4771    0.0117 O.3     1  UNL1       -0.3894
     15 O          -0.3109   -2.5151    1.3193 O.3     1  UNL1       -0.3835
     16 O          -2.3217   -4.1944    0.3187 O.3     1  UNL1       -0.3862
     17 O          -2.4613   -2.6811    2.6752 O.3     1  UNL1       -0.3838
     18 H          -3.8634   -0.4517    0.5955 H       1  UNL1        0.0841
     19 H          -3.7957   -0.3995    2.3732 H       1  UNL1        0.0841
     20 H          -1.0041    1.6709    1.7467 H       1  UNL1        0.0837
     21 H          -2.3226    1.7060    0.5514 H       1  UNL1        0.0837
     22 H          -3.0466    2.7794    2.6503 H       1  UNL1        0.0610
     23 H          -3.9641    1.2784    2.3790 H       1  UNL1        0.0610
     24 H          -3.1035    1.4057    4.6036 H       1  UNL1        0.2096
     25 H           0.6839   -0.3187   -0.7284 H       1  UNL1        0.0614
     26 H           0.6797   -0.1692    1.0453 H       1  UNL1        0.0614
     27 H           0.8162    1.9608   -0.0271 H       1  UNL1        0.2097
     28 H          -0.1684   -3.4693    1.3846 H       1  UNL1        0.2102
     29 H          -3.1595   -4.6748    0.3665 H       1  UNL1        0.2100
     30 H          -2.8634   -2.4019    3.5091 H       1  UNL1        0.2101
     31 N          -1.9296   -0.1853    1.4291 N.4     1  UNL1        0.2444
     32 H          -1.3958   -0.5363    2.2329 H       1  UNL1        0.2040
@<TRIPOS>UNITY_ATOM_ATTR
31 1
charge 1
@<TRIPOS>BOND
     1     1     2    1
     2     1    18    1
     3     1    19    1
     4     1    31    1
     5     2     3    1
     6     2     4    1
     7     2    17    1
     8     4     5    1
     9     4     6    1
    10     4    16    1
    11     6     7    1
    12     6     8    1
    13     6    15    1
    14     8     9    1
    15     8    13    1
    16     8    31    1
    17    10    11    1
    18    10    20    1
    19    10    21    1
    20    10    31    1
    21    11    12    1
    22    11    22    1
    23    11    23    1
    24    12    24    1
    25    13    14    1
    26    13    25    1
    27    13    26    1
    28    14    27    1
    29    15    28    1
    30    16    29    1
    31    17    30    1
    32    31    32    1
