@<TRIPOS>MOLECULE
ZINC00896634
 34 36 0 0 0
SMALL
GASTEIGER

@<TRIPOS>ATOM
      1 C          -1.3201   -0.6354   -0.0785 C.3     1  UNL1        0.0084
      2 N          -0.0162    0.0292   -0.0122 N.am    1  UNL1       -0.2701
      3 C           1.1111   -0.7775    0.0217 C.ar    1  UNL1        0.0453
      4 C           1.0504   -1.9313    0.8060 C.ar    1  UNL1       -0.0383
      5 C           2.1297   -2.7830    0.8878 C.ar    1  UNL1       -0.0416
      6 C           3.2918   -2.5019    0.1862 C.ar    1  UNL1        0.0417
      7 C           3.3697   -1.3686   -0.5911 C.ar    1  UNL1       -0.0324
      8 C           2.2789   -0.4902   -0.6818 C.ar    1  UNL1        0.0234
      9 C           2.4331    0.7036   -1.5279 C.2     1  UNL1        0.0780
     10 N           1.9978    1.8767   -1.2314 N.2     1  UNL1       -0.2428
     11 C           1.2789    2.1415    0.0149 C.3     1  UNL1        0.2248
     12 H           1.0586    3.2063    0.0902 H       1  UNL1        0.0952
     13 C          -0.0067    1.3601    0.0103 C.2     1  UNL1        0.2709
     14 O          -1.0616    1.9584    0.0224 O.2     1  UNL1       -0.2702
     15 O           2.0810    1.7366    1.1261 O.3     1  UNL1       -0.3636
     16 C           3.1426    0.5419   -2.8183 C.ar    1  UNL1        0.0007
     17 C           3.7469    1.6413   -3.4277 C.ar    1  UNL1       -0.0526
     18 C           4.4116    1.4831   -4.6264 C.ar    1  UNL1       -0.0611
     19 C           4.4687    0.2396   -5.2301 C.ar    1  UNL1       -0.0617
     20 C           3.8663   -0.8536   -4.6334 C.ar    1  UNL1       -0.0611
     21 C           3.2040   -0.7093   -3.4316 C.ar    1  UNL1       -0.0526
     22 CL          4.6493   -3.5791    0.2885 Cl      1  UNL1       -0.0835
     23 H          -2.1100    0.1154   -0.0994 H       1  UNL1        0.0433
     24 H          -1.3726   -1.2433   -0.9817 H       1  UNL1        0.0433
     25 H          -1.4479   -1.2728    0.7964 H       1  UNL1        0.0433
     26 H           0.1484   -2.1575    1.3550 H       1  UNL1        0.0637
     27 H           2.0702   -3.6717    1.4986 H       1  UNL1        0.0633
     28 H           4.2775   -1.1534   -1.1351 H       1  UNL1        0.0639
     29 H           2.9267    2.2011    1.1906 H       1  UNL1        0.2125
     30 H           3.6988    2.6135   -2.9597 H       1  UNL1        0.0624
     31 H           4.8837    2.3328   -5.0971 H       1  UNL1        0.0618
     32 H           4.9860    0.1217   -6.1708 H       1  UNL1        0.0618
     33 H           3.9143   -1.8219   -5.1094 H       1  UNL1        0.0618
     34 H           2.7344   -1.5635   -2.9665 H       1  UNL1        0.0624
@<TRIPOS>BOND
     1     1     2    1
     2     1    23    1
     3     1    24    1
     4     1    25    1
     5     2    13   am
     6     2     3    1
     7     3     8   ar
     8     3     4   ar
     9     4     5   ar
    10     4    26    1
    11     5     6   ar
    12     5    27    1
    13     6     7   ar
    14     6    22    1
    15     7     8   ar
    16     7    28    1
    17     8     9    1
    18     9    10    2
    19     9    16    1
    20    10    11    1
    21    11    12    1
    22    11    13    1
    23    11    15    1
    24    13    14    2
    25    15    29    1
    26    16    21   ar
    27    16    17   ar
    28    17    18   ar
    29    17    30    1
    30    18    19   ar
    31    18    31    1
    32    19    20   ar
    33    19    32    1
    34    20    21   ar
    35    20    33    1
    36    21    34    1
