@<TRIPOS>MOLECULE
ZINC03830472
 39 42 0 0 0
SMALL
GASTEIGER

@<TRIPOS>ATOM
      1 C          -0.3119    2.8106    2.1189 C.ar    1  UNL1        0.1386
      2 N          -1.3265    2.9926    2.9284 N.ar    1  UNL1       -0.1169
      3 N          -2.3325    2.3390    2.4588 N.ar    1  UNL1       -0.0233
      4 N          -1.9876    1.7492    1.3677 N.ar    1  UNL1       -0.0437
      5 N          -0.7472    2.0110    1.1276 N.ar    1  UNL1       -0.2232
      6 C           0.0379    1.5329   -0.0131 C.3     1  UNL1        0.1209
      7 C          -0.0215    0.0281   -0.0685 C.2     1  UNL1        0.2353
      8 O          -0.6571   -0.5847    0.7629 O.2     1  UNL1       -0.2738
      9 N           0.6317   -0.6367   -1.0421 N.am    1  UNL1       -0.3002
     10 CA          0.5739   -2.0996   -1.0960 C.3     1  UNL1        0.1284
     11 HA          0.3837   -2.5476   -0.1207 H       1  UNL1        0.0622
     12 C           1.7520   -2.7210   -1.8282 C.3     1  UNL1        0.1041
     13 H           2.3933   -2.0306   -2.3761 H       1  UNL1        0.0644
     14 N           0.6697   -3.3980   -2.6075 N.am    1  UNL1       -0.2533
     15 C          -0.3391   -2.6225   -2.1827 C.2     1  UNL1        0.2438
     16 O          -1.4867   -2.4260   -2.5226 O.2     1  UNL1       -0.2731
     17 CA          0.8220   -4.5502   -3.4035 C.2     1  UNL1        0.0607
     18 C           1.8559   -5.3567   -3.2308 C.2     1  UNL1       -0.0264
     19 C           3.0030   -5.2079   -2.2850 C.3     1  UNL1        0.0195
     20 S           2.6189   -4.0532   -0.9321 S.3     1  UNL1       -0.1311
     21 C           1.8800   -6.5866   -4.1013 C.3     1  UNL1        0.0242
     22 S           3.0426   -6.3373   -5.4659 S.3     1  UNL1       -0.0925
     23 C           2.8744   -7.8817   -6.2972 C.ar    1  UNL1        0.1585
     24 N           2.1130   -8.9292   -6.0072 N.ar    1  UNL1       -0.1350
     25 N           2.1152   -9.9699   -6.7197 N.ar    1  UNL1       -0.1489
     26 C           2.8702  -10.0843   -7.7934 C.ar    1  UNL1        0.0895
     27 S           3.6761   -8.4854   -7.7802 S.2     1  UNL1       -0.0476
     28 C          -0.1803   -4.8597   -4.4392 C.2     1  UNL1        0.0860
     29 O          -0.0680   -4.3883   -5.5535 O.co2   1  UNL1       -0.5433
     30 H           0.6810    3.2218    2.2267 H       1  UNL1        0.1063
     31 H           1.0741    1.8517    0.0999 H       1  UNL1        0.0606
     32 H          -0.3711    1.9469   -0.9348 H       1  UNL1        0.0606
     33 H           1.1401   -0.1466   -1.7071 H       1  UNL1        0.1496
     34 H           3.2432   -6.1833   -1.8618 H       1  UNL1        0.0423
     35 H           3.8693   -4.8371   -2.8330 H       1  UNL1        0.0423
     36 H           2.1945   -7.4453   -3.5083 H       1  UNL1        0.0427
     37 H           0.8826   -6.7675   -4.5021 H       1  UNL1        0.0427
     38 H           2.9708  -10.9064   -8.4865 H       1  UNL1        0.0927
     39 OXT        -1.2212   -5.6655   -4.1502 O.co2   1  UNL1       -0.5433
@<TRIPOS>UNITY_ATOM_ATTR
39 1
charge -1
@<TRIPOS>BOND
     1     1     5   ar
     2     1     2   ar
     3     1    30    1
     4     2     3   ar
     5     3     4   ar
     6     4     5   ar
     7     5     6    1
     8     6     7    1
     9     6    31    1
    10     6    32    1
    11     7     8    2
    12     7     9   am
    13     9    10    1
    14     9    33    1
    15    10    11    1
    16    10    15    1
    17    10    12    1
    18    12    13    1
    19    12    20    1
    20    12    14    1
    21    14    15   am
    22    14    17    1
    23    15    16    2
    24    17    18    2
    25    17    28    1
    26    18    19    1
    27    18    21    1
    28    19    20    1
    29    19    34    1
    30    19    35    1
    31    21    22    1
    32    21    36    1
    33    21    37    1
    34    22    23    1
    35    23    27   ar
    36    23    24   ar
    37    24    25   ar
    38    25    26   ar
    39    26    27   ar
    40    26    38    1
    41    28    29   ar
    42    28    39   ar
