@<TRIPOS>MOLECULE
ZINC03830741
 62 65 0 0 0
SMALL
GASTEIGER

@<TRIPOS>ATOM
      1 C          -0.0187    1.5258    0.0104 C.3     1  UNL1       -0.0552
      2 C           0.0021   -0.0041    0.0020 C.3     1  UNL1        0.0421
      3 C          -1.4117   -0.5257    0.0127 C.2     1  UNL1        0.3071
      4 O          -2.3406    0.2469    0.0257 O.2     1  UNL1       -0.2509
      5 O          -1.6391   -1.8486    0.0078 O.3     1  UNL1       -0.4608
      6 C          -3.0261   -2.2793    0.0187 C.3     1  UNL1        0.1087
      7 H          -3.6468   -1.5295    0.5082 H       1  UNL1        0.0739
      8 C          -3.5189   -2.5165   -1.4238 C.3     1  UNL1       -0.0149
      9 C          -3.9597   -3.9937   -1.5026 C.3     1  UNL1       -0.0460
     10 C          -4.2614   -4.3787   -0.0245 C.3     1  UNL1       -0.0291
     11 H          -4.2156   -5.4564    0.1403 H       1  UNL1        0.0310
     12 C          -3.1550   -3.6305    0.7324 C.3     1  UNL1        0.0081
     13 C          -3.4489   -3.4870    2.2094 C.3     1  UNL1       -0.0437
     14 C          -4.8221   -2.8599    2.4387 C.3     1  UNL1       -0.0488
     15 C          -5.8900   -3.7501    1.7920 C.3     1  UNL1       -0.0322
     16 H          -5.8196   -4.7577    2.2095 H       1  UNL1        0.0309
     17 C          -5.6529   -3.8135    0.2926 C.3     1  UNL1       -0.0342
     18 H          -5.7230   -2.8076   -0.1200 H       1  UNL1        0.0306
     19 C          -6.6781   -4.7077   -0.4072 C.3     1  UNL1       -0.0494
     20 C          -8.0776   -4.5070    0.1677 C.3     1  UNL1       -0.0491
     21 C          -8.1325   -3.1574    0.8697 C.3     1  UNL1       -0.0287
     22 H          -7.7290   -2.3969    0.1856 H       1  UNL1        0.0310
     23 C          -7.2733   -3.1795    2.1289 C.3     1  UNL1       -0.0251
     24 C          -7.1564   -1.7782    2.7091 C.3     1  UNL1       -0.0378
     25 C          -8.4924   -1.0823    2.9271 C.3     1  UNL1        0.0152
     26 H          -8.3668   -0.0922    2.8638 H       1  UNL1        0.0375
     27 C          -9.5220   -1.4073    1.8841 C.2     1  UNL1        0.1365
     28 O         -10.3399   -0.5656    1.5645 O.2     1  UNL1       -0.2971
     29 C          -9.5651   -2.7653    1.2213 C.3     1  UNL1        0.0094
     30 C          -9.0439   -1.3464    4.3292 C.3     1  UNL1       -0.0557
     31 C          -7.8902   -4.1210    3.1695 C.3     1  UNL1       -0.0590
     32 C          -1.8373   -4.3982    0.5743 C.3     1  UNL1       -0.0559
     33 H           1.0039    1.9031    0.0027 H       1  UNL1        0.0235
     34 H          -0.5459    1.8868   -0.8726 H       1  UNL1        0.0235
     35 H          -0.5289    1.8773    0.9072 H       1  UNL1        0.0235
     36 H           0.5123   -0.3556   -0.8948 H       1  UNL1        0.0375
     37 H           0.5293   -0.3651    0.8851 H       1  UNL1        0.0375
     38 H          -4.3641   -1.8627   -1.6418 H       1  UNL1        0.0301
     39 H          -2.7113   -2.3280   -2.1312 H       1  UNL1        0.0301
     40 H          -3.1623   -4.6135   -1.9120 H       1  UNL1        0.0269
     41 H          -4.8572   -4.0909   -2.1158 H       1  UNL1        0.0269
     42 H          -3.4236   -4.4722    2.6764 H       1  UNL1        0.0272
     43 H          -2.6863   -2.8559    2.6666 H       1  UNL1        0.0272
     44 H          -4.8431   -1.8671    1.9918 H       1  UNL1        0.0268
     45 H          -5.0040   -2.7840    3.5114 H       1  UNL1        0.0268
     46 H          -6.6930   -4.4694   -1.4715 H       1  UNL1        0.0268
     47 H          -6.3859   -5.7510   -0.2820 H       1  UNL1        0.0268
     48 H          -8.3192   -5.3152    0.8521 H       1  UNL1        0.0268
     49 H          -8.8041   -4.5129   -0.6528 H       1  UNL1        0.0268
     50 H          -6.6207   -1.8312    3.6688 H       1  UNL1        0.0277
     51 H          -6.5435   -1.1625    2.0322 H       1  UNL1        0.0277
     52 H          -9.9584   -3.4525    1.8321 H       1  UNL1        0.0344
     53 H         -10.1511   -2.6912    0.2950 H       1  UNL1        0.0344
     54 H          -8.3382   -0.9761    5.0729 H       1  UNL1        0.0236
     55 H          -9.9983   -0.8332    4.4468 H       1  UNL1        0.0236
     56 H          -9.1881   -2.4179    4.4671 H       1  UNL1        0.0236
     57 H          -7.2548   -4.1506    4.0546 H       1  UNL1        0.0235
     58 H          -8.8807   -3.7588    3.4452 H       1  UNL1        0.0235
     59 H          -7.9740   -5.1229    2.7486 H       1  UNL1        0.0235
     60 H          -1.0297   -3.8336    1.0402 H       1  UNL1        0.0236
     61 H          -1.9244   -5.3723    1.0556 H       1  UNL1        0.0236
     62 H          -1.6211   -4.5344   -0.4853 H       1  UNL1        0.0236
@<TRIPOS>BOND
     1     1     2    1
     2     1    33    1
     3     1    34    1
     4     1    35    1
     5     2     3    1
     6     2    36    1
     7     2    37    1
     8     3     4    2
     9     3     5    1
    10     5     6    1
    11     6     7    1
    12     6    12    1
    13     6     8    1
    14     8     9    1
    15     8    38    1
    16     8    39    1
    17     9    10    1
    18     9    40    1
    19     9    41    1
    20    10    11    1
    21    10    17    1
    22    10    12    1
    23    12    13    1
    24    12    32    1
    25    13    14    1
    26    13    42    1
    27    13    43    1
    28    14    15    1
    29    14    44    1
    30    14    45    1
    31    15    16    1
    32    15    23    1
    33    15    17    1
    34    17    18    1
    35    17    19    1
    36    19    20    1
    37    19    46    1
    38    19    47    1
    39    20    21    1
    40    20    48    1
    41    20    49    1
    42    21    22    1
    43    21    29    1
    44    21    23    1
    45    23    24    1
    46    23    31    1
    47    24    25    1
    48    24    50    1
    49    24    51    1
    50    25    26    1
    51    25    27    1
    52    25    30    1
    53    27    28    2
    54    27    29    1
    55    29    52    1
    56    29    53    1
    57    30    54    1
    58    30    55    1
    59    30    56    1
    60    31    57    1
    61    31    58    1
    62    31    59    1
    63    32    60    1
    64    32    61    1
    65    32    62    1
