@<TRIPOS>MOLECULE
ZINC01482162
 47 49 0 0 0
SMALL
GASTEIGER

@<TRIPOS>ATOM
      1 C          -0.8949    1.7969   -1.0201 C.3     1  UNL1       -0.0529
      2 C          -0.0127    1.0858    0.0080 C.3     1  UNL1        0.0241
      3 H           0.0629    0.0288   -0.2473 H       1  UNL1        0.0410
      4 C           1.3619    1.7034    0.0031 C.ar    1  UNL1        0.0484
      5 C           1.5617    2.9208   -0.6204 C.ar    1  UNL1       -0.0398
      6 C           2.8288    3.4831   -0.6139 C.ar    1  UNL1       -0.0586
      7 C           3.8547    2.7913    0.0122 C.ar    1  UNL1       -0.0436
      8 C           3.5807    1.5758    0.6096 C.ar    1  UNL1        0.0279
      9 N           2.3613    1.0736    0.5890 N.ar    1  UNL1       -0.2593
     10 C          -0.6230    1.2292    1.3784 C.2     1  UNL1       -0.0316
     11 C          -0.9885    0.2160    2.1441 C.2     1  UNL1       -0.0559
     12 C          -1.5510    0.7732    3.4309 C.3     1  UNL1       -0.0051
     13 C          -1.4559    2.2734    3.2953 C.ar    1  UNL1       -0.0359
     14 C          -0.8851    2.5185    2.0444 C.ar    1  UNL1       -0.0178
     15 C          -0.6786    3.8384    1.6368 C.ar    1  UNL1       -0.0540
     16 C          -1.0280    4.8788    2.4726 C.ar    1  UNL1       -0.0612
     17 C          -1.5873    4.6230    3.7116 C.ar    1  UNL1       -0.0615
     18 C          -1.8008    3.3172    4.1213 C.ar    1  UNL1       -0.0577
     19 C          -0.8650   -1.2446    1.7940 C.3     1  UNL1        0.0095
     20 C           0.4379   -1.7995    2.3732 C.3     1  UNL1       -0.0286
     21 C           0.7144   -3.4058    0.5827 C.3     1  UNL1       -0.0433
     22 C           1.6681   -3.8480    2.7639 C.3     1  UNL1       -0.0433
     23 H          -0.9706    2.8539   -0.7648 H       1  UNL1        0.0239
     24 H          -0.4535    1.6932   -2.0113 H       1  UNL1        0.0239
     25 H          -1.8892    1.3502   -1.0165 H       1  UNL1        0.0239
     26 H           0.7401    3.4295   -1.1026 H       1  UNL1        0.0636
     27 H           3.0136    4.4350   -1.0894 H       1  UNL1        0.0619
     28 H           4.8551    3.1976    0.0331 H       1  UNL1        0.0633
     29 H           4.3741    1.0308    1.0993 H       1  UNL1        0.0829
     30 H          -2.5913    0.4704    3.5502 H       1  UNL1        0.0359
     31 H          -0.9585    0.4329    4.2801 H       1  UNL1        0.0359
     32 H          -0.2423    4.0441    0.6705 H       1  UNL1        0.0624
     33 H          -0.8636    5.8988    2.1579 H       1  UNL1        0.0618
     34 H          -1.8582    5.4427    4.3604 H       1  UNL1        0.0618
     35 H          -2.2376    3.1190    5.0889 H       1  UNL1        0.0621
     36 H          -1.7103   -1.7911    2.2120 H       1  UNL1        0.0362
     37 H          -0.8585   -1.3591    0.7100 H       1  UNL1        0.0362
     38 H           1.2832   -1.2529    1.9551 H       1  UNL1        0.0817
     39 H           0.4314   -1.6850    3.4572 H       1  UNL1        0.0817
     40 H           1.6128   -2.8885    0.2460 H       1  UNL1        0.0777
     41 H           0.8013   -4.4688    0.3577 H       1  UNL1        0.0777
     42 H          -0.1551   -2.9956    0.0691 H       1  UNL1        0.0777
     43 H           1.4920   -3.7592    3.8359 H       1  UNL1        0.0777
     44 H           1.7348   -4.9016    2.4926 H       1  UNL1        0.0777
     45 H           2.6011   -3.3467    2.5062 H       1  UNL1        0.0777
     46 N           0.5339   -3.2363    2.0399 N.4     1  UNL1        0.2311
     47 H          -0.3347   -3.7036    2.3250 H       1  UNL1        0.2028
@<TRIPOS>UNITY_ATOM_ATTR
46 1
charge 1
@<TRIPOS>BOND
     1     1     2    1
     2     1    23    1
     3     1    24    1
     4     1    25    1
     5     2     3    1
     6     2     4    1
     7     2    10    1
     8     4     9   ar
     9     4     5   ar
    10     5     6   ar
    11     5    26    1
    12     6     7   ar
    13     6    27    1
    14     7     8   ar
    15     7    28    1
    16     8     9   ar
    17     8    29    1
    18    10    14    1
    19    10    11    2
    20    11    12    1
    21    11    19    1
    22    12    13    1
    23    12    30    1
    24    12    31    1
    25    13    18   ar
    26    13    14   ar
    27    14    15   ar
    28    15    16   ar
    29    15    32    1
    30    16    17   ar
    31    16    33    1
    32    17    18   ar
    33    17    34    1
    34    18    35    1
    35    19    20    1
    36    19    36    1
    37    19    37    1
    38    20    38    1
    39    20    39    1
    40    20    46    1
    41    21    40    1
    42    21    41    1
    43    21    42    1
    44    21    46    1
    45    22    43    1
    46    22    44    1
    47    22    45    1
    48    22    46    1
    49    46    47    1
