@<TRIPOS>MOLECULE
ZINC00057407
 33 33 0 0 0
SMALL
GASTEIGER

@<TRIPOS>ATOM
      1 C          -2.5557    1.0845    7.7941 C.3     1  UNL1       -0.0190
      2 C          -1.8023    0.5804    6.5615 C.3     1  UNL1        0.0036
      3 H          -1.2257   -0.3062    6.8255 H       1  UNL1        0.0876
      4 C          -0.8564    1.6732    6.0597 C.3     1  UNL1        0.1256
      5 H          -0.0885    1.8617    6.8099 H       1  UNL1        0.0702
      6 C          -0.2058    1.2242    4.7767 C.ar    1  UNL1        0.0313
      7 C          -0.7474    1.5947    3.5610 C.ar    1  UNL1       -0.0106
      8 C          -0.1485    1.1819    2.3803 C.ar    1  UNL1        0.1207
      9 C           0.9912    0.3921    2.4200 C.ar    1  UNL1       -0.0165
     10 C           1.5360    0.0264    3.6353 C.ar    1  UNL1       -0.0161
     11 C           0.9368    0.4394    4.8163 C.ar    1  UNL1        0.1261
     12 O           1.4702    0.0750    6.0130 O.3     1  UNL1       -0.4947
     13 C           2.6478   -0.7339    5.9790 C.3     1  UNL1        0.0788
     14 O          -0.6816    1.5467    1.1837 O.3     1  UNL1       -0.4951
     15 C          -0.0127    1.0858    0.0080 C.3     1  UNL1        0.0788
     16 O          -1.5967    2.8726    5.8240 O.3     1  UNL1       -0.3815
     17 H          -1.8419    1.3356    8.5787 H       1  UNL1        0.0285
     18 H          -3.1323    1.9710    7.5302 H       1  UNL1        0.0285
     19 H          -3.2296    0.3059    8.1517 H       1  UNL1        0.0285
     20 H          -1.6371    2.2062    3.5301 H       1  UNL1        0.0659
     21 H           1.4550    0.0667    1.5005 H       1  UNL1        0.0655
     22 H           2.4259   -0.5848    3.6662 H       1  UNL1        0.0655
     23 H           2.4328   -1.6668    5.4579 H       1  UNL1        0.0660
     24 H           3.4406   -0.1996    5.4555 H       1  UNL1        0.0660
     25 H           2.9681   -0.9522    6.9978 H       1  UNL1        0.0660
     26 H           0.0021   -0.0041    0.0020 H       1  UNL1        0.0660
     27 H           1.0099    1.4631    0.0003 H       1  UNL1        0.0660
     28 H          -0.5399    1.4469   -0.8751 H       1  UNL1        0.0660
     29 H          -2.2987    2.7786    5.1658 H       1  UNL1        0.2105
     30 H          -2.2892   -0.0325    4.6574 H       1  UNL1        0.1998
     31 H          -3.4007   -0.4783    5.8113 H       1  UNL1        0.1998
     32 N          -2.7759    0.2643    5.5016 N.4     1  UNL1        0.2226
     33 H          -3.3303    1.1026    5.2915 H       1  UNL1        0.1998
@<TRIPOS>UNITY_ATOM_ATTR
32 1
charge 1
@<TRIPOS>BOND
     1     1     2    1
     2     1    17    1
     3     1    18    1
     4     1    19    1
     5     2     3    1
     6     2     4    1
     7     2    32    1
     8     4     5    1
     9     4     6    1
    10     4    16    1
    11     6    11   ar
    12     6     7   ar
    13     7     8   ar
    14     7    20    1
    15     8     9   ar
    16     8    14    1
    17     9    10   ar
    18     9    21    1
    19    10    11   ar
    20    10    22    1
    21    11    12    1
    22    12    13    1
    23    13    23    1
    24    13    24    1
    25    13    25    1
    26    14    15    1
    27    15    26    1
    28    15    27    1
    29    15    28    1
    30    16    29    1
    31    30    32    1
    32    31    32    1
    33    32    33    1
