@<TRIPOS>MOLECULE
ZINC00020259
 28 28 0 0 0
SMALL
GASTEIGER

@<TRIPOS>ATOM
      1 C          -0.0187    1.5258    0.0104 C.3     1  UNL1       -0.0189
      2 C           0.0021   -0.0041    0.0020 C.3     1  UNL1        0.0050
      3 H          -1.0205   -0.3814    0.0098 H       1  UNL1        0.0877
      4 C           0.7182   -0.4975   -1.2568 C.3     1  UNL1        0.1222
      5 H           0.1910   -0.1364   -2.1398 H       1  UNL1        0.0701
      6 C           0.7387   -2.0043   -1.2651 C.ar    1  UNL1       -0.0138
      7 C           1.6759   -2.6870   -0.5125 C.ar    1  UNL1       -0.0559
      8 C           1.6919   -4.0693   -0.5167 C.ar    1  UNL1       -0.0614
      9 C           0.7764   -4.7687   -1.2806 C.ar    1  UNL1       -0.0617
     10 C          -0.1576   -4.0860   -2.0372 C.ar    1  UNL1       -0.0614
     11 C          -0.1763   -2.7038   -2.0297 C.ar    1  UNL1       -0.0559
     12 O           2.0588   -0.0029   -1.2669 O.3     1  UNL1       -0.3816
     13 C          -0.1906   -0.5721    2.3478 C.3     1  UNL1       -0.0445
     14 H           1.0039    1.9031    0.0027 H       1  UNL1        0.0285
     15 H          -0.5459    1.8868   -0.8726 H       1  UNL1        0.0285
     16 H          -0.5289    1.8773    0.9072 H       1  UNL1        0.0285
     17 H           2.3936   -2.1405    0.0814 H       1  UNL1        0.0621
     18 H           2.4213   -4.6027    0.0747 H       1  UNL1        0.0618
     19 H           0.7905   -5.8486   -1.2859 H       1  UNL1        0.0618
     20 H          -0.8728   -4.6325   -2.6340 H       1  UNL1        0.0618
     21 H          -0.9059   -2.1704   -2.6208 H       1  UNL1        0.0621
     22 H           2.5880   -0.2852   -0.5084 H       1  UNL1        0.2105
     23 H          -0.5958    0.4167    2.5627 H       1  UNL1        0.0777
     24 H          -1.0071   -1.2584    2.1233 H       1  UNL1        0.0777
     25 H           0.3610   -0.9350    3.2151 H       1  UNL1        0.0777
     26 N           0.7230   -0.4933    1.1923 N.4     1  UNL1        0.2289
     27 H           1.4915    0.1513    1.4115 H       1  UNL1        0.2014
     28 H           1.1041   -1.4266    0.9976 H       1  UNL1        0.2014
@<TRIPOS>UNITY_ATOM_ATTR
26 1
charge 1
@<TRIPOS>BOND
     1     1     2    1
     2     1    14    1
     3     1    15    1
     4     1    16    1
     5     2     3    1
     6     2     4    1
     7     2    26    1
     8     4     5    1
     9     4     6    1
    10     4    12    1
    11     6    11   ar
    12     6     7   ar
    13     7     8   ar
    14     7    17    1
    15     8     9   ar
    16     8    18    1
    17     9    10   ar
    18     9    19    1
    19    10    11   ar
    20    10    20    1
    21    11    21    1
    22    12    22    1
    23    13    23    1
    24    13    24    1
    25    13    25    1
    26    13    26    1
    27    26    27    1
    28    26    28    1
