@<TRIPOS>MOLECULE
ZINC01530579
 57 60 0 0 0
SMALL
GASTEIGER

@<TRIPOS>ATOM
      1 C          -2.5204    2.8033   -4.7053 C.3     1  UNL1        0.0790
      2 O          -1.9353    2.4030   -3.4646 O.3     1  UNL1       -0.4915
      3 C          -0.8160    1.6334   -3.5297 C.ar    1  UNL1        0.1615
      4 C          -0.2923    1.2721   -4.7607 C.ar    1  UNL1       -0.0163
      5 C           0.8459    0.4902   -4.8251 C.ar    1  UNL1       -0.0581
      6 C           1.4644    0.0673   -3.6632 C.ar    1  UNL1       -0.0581
      7 C           0.9501    0.4285   -2.4318 C.ar    1  UNL1       -0.0163
      8 C          -0.1937    1.2073   -2.3602 C.ar    1  UNL1        0.1622
      9 O          -0.7038    1.5592   -1.1497 O.3     1  UNL1       -0.4830
     10 C          -0.0127    1.0858    0.0080 C.3     1  UNL1        0.1292
     11 C          -0.7288    1.5792    1.2668 C.3     1  UNL1        0.0014
     12 C          -2.7846    1.4269    2.5370 C.3     1  UNL1       -0.0037
     13 C          -4.1695    0.7778    2.5764 C.3     1  UNL1        0.1285
     14 H          -4.0619   -0.3065    2.6046 H       1  UNL1        0.0681
     15 C          -4.9180    1.2486    3.8250 C.3     1  UNL1        0.1204
     16 O          -6.1634    0.5548    3.9237 O.3     1  UNL1       -0.4885
     17 C          -6.9560    0.8582    4.9845 C.ar    1  UNL1        0.1303
     18 C          -6.5470    1.8017    5.9108 C.ar    1  UNL1       -0.0192
     19 C          -7.3549    2.1113    6.9925 C.ar    1  UNL1       -0.0563
     20 C          -8.5726    1.4871    7.1609 C.ar    1  UNL1       -0.0375
     21 C          -9.0033    0.5348    6.2417 C.ar    1  UNL1        0.0510
     22 C          -8.1904    0.2234    5.1425 C.ar    1  UNL1        0.0490
     23 C          -8.9082   -0.8058    4.3689 C.ar    1  UNL1        0.0109
     24 C          -8.6172   -1.5017    3.1977 C.ar    1  UNL1       -0.0519
     25 C          -9.5171   -2.4232    2.7072 C.ar    1  UNL1       -0.0611
     26 C         -10.7089   -2.6595    3.3752 C.ar    1  UNL1       -0.0598
     27 C         -11.0094   -1.9779    4.5348 C.ar    1  UNL1       -0.0378
     28 C         -10.1138   -1.0434    5.0455 C.ar    1  UNL1        0.0476
     29 N         -10.1529   -0.2310    6.1650 N.ar    1  UNL1       -0.3540
     30 H         -10.8819   -0.2024    6.8043 H       1  UNL1        0.1659
     31 O          -4.9049    1.1534    1.4102 O.3     1  UNL1       -0.3831
     32 H          -3.4041    3.4111   -4.5109 H       1  UNL1        0.0660
     33 H          -1.7975    3.3856   -5.2768 H       1  UNL1        0.0660
     34 H          -2.8058    1.9187   -5.2746 H       1  UNL1        0.0660
     35 H          -0.7731    1.6018   -5.6698 H       1  UNL1        0.0655
     36 H           1.2530    0.2093   -5.7851 H       1  UNL1        0.0619
     37 H           2.3536   -0.5432   -3.7176 H       1  UNL1        0.0619
     38 H           1.4377    0.1005   -1.5257 H       1  UNL1        0.0655
     39 H           0.0021   -0.0041    0.0020 H       1  UNL1        0.0751
     40 H           1.0099    1.4631    0.0003 H       1  UNL1        0.0751
     41 H          -0.1536    1.2938    2.1476 H       1  UNL1        0.0847
     42 H          -0.8222    2.6646    1.2299 H       1  UNL1        0.0847
     43 H          -2.2236    1.1404    3.4266 H       1  UNL1        0.0840
     44 H          -2.8922    2.5112    2.5089 H       1  UNL1        0.0840
     45 H          -4.3156    1.0414    4.7095 H       1  UNL1        0.0725
     46 H          -5.1038    2.3203    3.7548 H       1  UNL1        0.0725
     47 H          -5.5953    2.2976    5.7900 H       1  UNL1        0.0654
     48 H          -7.0279    2.8488    7.7105 H       1  UNL1        0.0619
     49 H          -9.1937    1.7374    8.0083 H       1  UNL1        0.0638
     50 H          -7.6894   -1.3197    2.6758 H       1  UNL1        0.0624
     51 H          -9.2932   -2.9630    1.7990 H       1  UNL1        0.0618
     52 H         -11.4079   -3.3835    2.9832 H       1  UNL1        0.0618
     53 H         -11.9406   -2.1691    5.0473 H       1  UNL1        0.0638
     54 H          -5.0391    2.1068    1.3199 H       1  UNL1        0.2102
     55 N          -2.0699    0.9681    1.3309 N.4     1  UNL1        0.2313
     56 H          -1.9753   -0.0538    1.3615 H       1  UNL1        0.2016
     57 H          -2.6050    1.2375    0.4971 H       1  UNL1        0.2016
@<TRIPOS>UNITY_ATOM_ATTR
55 1
charge 1
@<TRIPOS>BOND
     1     1     2    1
     2     1    32    1
     3     1    33    1
     4     1    34    1
     5     2     3    1
     6     3     8   ar
     7     3     4   ar
     8     4     5   ar
     9     4    35    1
    10     5     6   ar
    11     5    36    1
    12     6     7   ar
    13     6    37    1
    14     7     8   ar
    15     7    38    1
    16     8     9    1
    17     9    10    1
    18    10    11    1
    19    10    39    1
    20    10    40    1
    21    11    41    1
    22    11    42    1
    23    11    55    1
    24    12    13    1
    25    12    43    1
    26    12    44    1
    27    12    55    1
    28    13    14    1
    29    13    15    1
    30    13    31    1
    31    15    16    1
    32    15    45    1
    33    15    46    1
    34    16    17    1
    35    17    22   ar
    36    17    18   ar
    37    18    19   ar
    38    18    47    1
    39    19    20   ar
    40    19    48    1
    41    20    21   ar
    42    20    49    1
    43    21    29   ar
    44    21    22   ar
    45    22    23   ar
    46    23    28   ar
    47    23    24   ar
    48    24    25   ar
    49    24    50    1
    50    25    26   ar
    51    25    51    1
    52    26    27   ar
    53    26    52    1
    54    27    28   ar
    55    27    53    1
    56    28    29   ar
    57    29    30    1
    58    31    54    1
    59    55    56    1
    60    55    57    1
