@<TRIPOS>MOLECULE
ZINC03831157
 54 57 0 0 0
SMALL
GASTEIGER

@<TRIPOS>ATOM
      1 C          -1.3800    9.4812    7.8347 C.3     1  UNL1        0.0346
      2 N          -0.2291    8.5755    7.7979 N.ar    1  UNL1       -0.2233
      3 C           0.2035    7.8380    6.7480 C.ar    1  UNL1        0.2094
      4 N           1.2668    7.1771    7.1517 N.ar    1  UNL1       -0.1015
      5 N           1.5241    7.4466    8.3807 N.ar    1  UNL1       -0.0222
      6 N           0.6614    8.2837    8.8460 N.ar    1  UNL1       -0.0435
      7 S          -0.5175    7.7803    5.1414 S.3     1  UNL1       -0.0801
      8 C           0.6059    6.6129    4.3344 C.3     1  UNL1        0.0265
      9 C           0.1718    6.4033    2.9066 C.2     1  UNL1       -0.0107
     10 C           0.6369    7.2460    1.9638 C.2     1  UNL1        0.0636
     11 N           0.1823    6.9323    0.6642 N.am    1  UNL1       -0.2347
     12 C          -1.0106    6.0750    0.3765 C.3     1  UNL1        0.1868
     13 H          -1.9868    6.5528    0.4589 H       1  UNL1        0.0866
     14 C          -0.4447    5.9869   -1.0365 C.3     1  UNL1        0.2580
     15 C           0.5679    7.0394   -0.6149 C.2     1  UNL1        0.2772
     16 O           1.3934    7.7068   -1.2016 O.2     1  UNL1       -0.2700
     17 N           0.1550    4.6872   -1.3486 N.am    1  UNL1       -0.2759
     18 C           1.1721    4.2170   -0.5996 C.2     1  UNL1        0.2285
     19 O           1.5908    4.8699    0.3328 O.2     1  UNL1       -0.2747
     20 C           1.7890    2.8801   -0.9207 C.3     1  UNL1        0.0998
     21 H           2.1944    2.9006   -1.9323 H       1  UNL1        0.0504
     22 C           2.8968    2.5898    0.0588 C.ar    1  UNL1       -0.0299
     23 C           2.6211    2.5202    1.4119 C.ar    1  UNL1       -0.0540
     24 C           3.6339    2.2486    2.3113 C.ar    1  UNL1       -0.0199
     25 C           4.9306    2.0574    1.8569 C.ar    1  UNL1        0.1169
     26 C           5.2057    2.1334    0.4993 C.ar    1  UNL1       -0.0199
     27 C           4.1883    2.3992   -0.3966 C.ar    1  UNL1       -0.0540
     28 O           5.9299    1.7965    2.7403 O.3     1  UNL1       -0.5068
     29 C           0.7374    1.8051   -0.8227 C.2     1  UNL1        0.0579
     30 O          -0.3978    2.0955   -0.5278 O.co2   1  UNL1       -0.5487
     31 O          -1.3513    6.4364   -2.0454 O.3     1  UNL1       -0.3481
     32 C          -0.8592    6.2848   -3.3784 C.3     1  UNL1        0.0396
     33 O          -0.8412    4.9247    1.2182 O.3     1  UNL1       -0.3487
     34 C          -0.7558    5.2679    2.6022 C.3     1  UNL1        0.0741
     35 C           1.5301    8.3808    2.2591 C.2     1  UNL1        0.0861
     36 O           2.0037    9.0337    1.3504 O.co2   1  UNL1       -0.5433
     37 H          -2.2678    8.9283    8.1417 H       1  UNL1        0.0474
     38 H          -1.1878   10.2842    8.5463 H       1  UNL1        0.0474
     39 H          -1.5406    9.9050    6.8434 H       1  UNL1        0.0474
     40 H           0.5829    5.6609    4.8647 H       1  UNL1        0.0427
     41 H           1.6194    7.0136    4.3509 H       1  UNL1        0.0427
     42 H          -0.1799    4.1651   -2.0944 H       1  UNL1        0.1520
     43 H           1.6123    2.6742    1.7656 H       1  UNL1        0.0622
     44 H           3.4172    2.1903    3.3677 H       1  UNL1        0.0654
     45 H           6.2144    1.9846    0.1430 H       1  UNL1        0.0654
     46 H           4.4020    2.4585   -1.4536 H       1  UNL1        0.0622
     47 H           6.3744    2.5870    3.0759 H       1  UNL1        0.2921
     48 H           0.0604    6.8585   -3.4937 H       1  UNL1        0.0525
     49 H          -0.6573    5.2316   -3.5736 H       1  UNL1        0.0525
     50 H          -1.6054    6.6487   -4.0848 H       1  UNL1        0.0525
     51 H          -1.7528    5.5329    2.9542 H       1  UNL1        0.0608
     52 H          -0.4177    4.3914    3.1550 H       1  UNL1        0.0608
     53 O           1.0605    0.5257   -1.0685 O.co2   1  UNL1       -0.5487
     54 O           1.8215    8.6941    3.5371 O.co2   1  UNL1       -0.5433
@<TRIPOS>UNITY_ATOM_ATTR
53 1
charge -1
54 1
charge -1
@<TRIPOS>BOND
     1     1     2    1
     2     1    37    1
     3     1    38    1
     4     1    39    1
     5     2     6   ar
     6     2     3   ar
     7     3     4   ar
     8     3     7    1
     9     4     5   ar
    10     5     6   ar
    11     7     8    1
    12     8     9    1
    13     8    40    1
    14     8    41    1
    15     9    34    1
    16     9    10    2
    17    10    11    1
    18    10    35    1
    19    11    15   am
    20    11    12    1
    21    12    13    1
    22    12    14    1
    23    12    33    1
    24    14    15    1
    25    14    17    1
    26    14    31    1
    27    15    16    2
    28    17    18   am
    29    17    42    1
    30    18    19    2
    31    18    20    1
    32    20    21    1
    33    20    22    1
    34    20    29    1
    35    22    27   ar
    36    22    23   ar
    37    23    24   ar
    38    23    43    1
    39    24    25   ar
    40    24    44    1
    41    25    26   ar
    42    25    28    1
    43    26    27   ar
    44    26    45    1
    45    27    46    1
    46    28    47    1
    47    29    30   ar
    48    29    53   ar
    49    31    32    1
    50    32    48    1
    51    32    49    1
    52    32    50    1
    53    33    34    1
    54    34    51    1
    55    34    52    1
    56    35    36   ar
    57    35    54   ar
