@<TRIPOS>MOLECULE
ZINC03830654
 54 57 0 0 0
SMALL
GASTEIGER

@<TRIPOS>ATOM
      1 C          -2.0822    1.2521    0.6924 C.3     1  UNL1       -0.0427
      2 C           0.2556    1.0750    0.0875 C.3     1  UNL1       -0.0427
      3 C          -0.5862    3.1156    1.0824 C.3     1  UNL1        0.0441
      4 H           0.4705    3.3829    1.0896 H       1  UNL1        0.0939
      5 C          -1.2398    3.6280    2.3674 C.3     1  UNL1        0.0531
      6 H          -2.2564    3.2426    2.4463 H       1  UNL1        0.0397
      7 C          -0.4122    3.1583    3.5589 C.3     1  UNL1       -0.0314
      8 C          -0.8061    3.8081    4.8687 C.3     1  UNL1        0.0218
      9 H           0.1083    4.1928    5.3203 H       1  UNL1        0.0380
     10 C          -1.3563    2.7425    5.8175 C.3     1  UNL1        0.0893
     11 H          -0.5914    1.9851    5.9889 H       1  UNL1        0.0650
     12 C          -1.7489    3.3581    7.1332 C.ar    1  UNL1        0.0141
     13 C          -1.5895    2.6468    8.3052 C.ar    1  UNL1        0.0475
     14 C          -1.9896    3.1950    9.5136 C.ar    1  UNL1       -0.0396
     15 C          -2.5504    4.4564    9.5596 C.ar    1  UNL1       -0.0181
     16 C          -2.7089    5.1885    8.3921 C.ar    1  UNL1        0.1281
     17 C          -2.2993    4.6396    7.1710 C.ar    1  UNL1        0.0704
     18 C          -2.4402    5.4102    5.9194 C.2     1  UNL1        0.1967
     19 O          -3.1281    6.4146    5.8832 O.2     1  UNL1       -0.2867
     20 C          -1.7546    4.9561    4.7529 C.2     1  UNL1        0.0463
     21 C          -1.9731    5.6134    3.5999 C.2     1  UNL1        0.1408
     22 C          -1.2629    5.1674    2.3402 C.3     1  UNL1        0.1935
     23 C          -2.1114    5.5907    1.1571 C.2     1  UNL1        0.2108
     24 O          -2.9023    6.5062    1.2540 O.2     1  UNL1       -0.2882
     25 C          -1.9521    4.8660   -0.1049 C.2     1  UNL1        0.1248
     26 C          -1.2299    3.7036   -0.1362 C.2     1  UNL1        0.1579
     27 O          -1.1138    3.0548   -1.3043 O.2     1  UNL1       -0.5050
     28 C          -2.5556    5.3943   -1.3387 C.2     1  UNL1        0.2485
     29 O          -2.0349    6.3279   -1.9191 O.2     1  UNL1       -0.2702
     30 N          -3.6853    4.8437   -1.8256 N.am    1  UNL1       -0.3252
     31 O           0.0581    5.7046    2.2493 O.3     1  UNL1       -0.3731
     32 O          -2.8193    6.6622    3.5667 O.2     1  UNL1       -0.5073
     33 O          -3.2571    6.4291    8.4333 O.3     1  UNL1       -0.5060
     34 CL         -0.8852    1.0606    8.2656 Cl      1  UNL1       -0.0832
     35 O          -2.5022    2.1290    5.2236 O.3     1  UNL1       -0.3865
     36 H          -2.1865    0.1740    0.8144 H       1  UNL1        0.0778
     37 H          -2.2946    1.5230   -0.3418 H       1  UNL1        0.0778
     38 H          -2.7834    1.7620    1.3530 H       1  UNL1        0.0778
     39 H           0.0165    1.4041   -0.9238 H       1  UNL1        0.0778
     40 H           1.2611    1.4050    0.3488 H       1  UNL1        0.0778
     41 H           0.2059   -0.0128    0.1369 H       1  UNL1        0.0778
     42 H          -0.5165    2.0772    3.6502 H       1  UNL1        0.0278
     43 H           0.6357    3.3884    3.3667 H       1  UNL1        0.0278
     44 H          -1.8616    2.6317   10.4262 H       1  UNL1        0.0633
     45 H          -2.8653    4.8730   10.5050 H       1  UNL1        0.0655
     46 H          -1.5918    3.5661   -2.0185 H       1  UNL1        0.2919
     47 H          -4.1420    4.1502   -1.3242 H       1  UNL1        0.1453
     48 H          -4.0417    5.1409   -2.6774 H       1  UNL1        0.1453
     49 H           0.0893    6.6709    2.2294 H       1  UNL1        0.2113
     50 H          -2.8611    7.0275    2.6367 H       1  UNL1        0.2918
     51 H          -4.2189    6.4376    8.3338 H       1  UNL1        0.2922
     52 H          -2.8969    1.4292    5.7617 H       1  UNL1        0.2103
     53 N          -0.7042    1.6424    1.0578 N.4     1  UNL1        0.2388
     54 H          -0.4902    1.2751    1.9923 H       1  UNL1        0.2035
@<TRIPOS>UNITY_ATOM_ATTR
53 1
charge 1
@<TRIPOS>BOND
     1     1    36    1
     2     1    37    1
     3     1    38    1
     4     1    53    1
     5     2    39    1
     6     2    40    1
     7     2    41    1
     8     2    53    1
     9     3     4    1
    10     3    26    1
    11     3     5    1
    12     3    53    1
    13     5     6    1
    14     5    22    1
    15     5     7    1
    16     7     8    1
    17     7    42    1
    18     7    43    1
    19     8     9    1
    20     8    20    1
    21     8    10    1
    22    10    11    1
    23    10    12    1
    24    10    35    1
    25    12    17   ar
    26    12    13   ar
    27    13    14   ar
    28    13    34    1
    29    14    15   ar
    30    14    44    1
    31    15    16   ar
    32    15    45    1
    33    16    17   ar
    34    16    33    1
    35    17    18    1
    36    18    19    2
    37    18    20    1
    38    20    21    2
    39    21    22    1
    40    21    32    1
    41    22    23    1
    42    22    31    1
    43    23    24    2
    44    23    25    1
    45    25    26    2
    46    25    28    1
    47    26    27    1
    48    27    46    1
    49    28    29    2
    50    28    30   am
    51    30    47    1
    52    30    48    1
    53    31    49    1
    54    32    50    1
    55    33    51    1
    56    35    52    1
    57    53    54    1
