@<TRIPOS>MOLECULE
ZINC00057297
 38 39 0 0 0
SMALL
GASTEIGER

@<TRIPOS>ATOM
      1 C          -3.8255    3.8020    9.3404 C.ar    1  UNL1       -0.0616
      2 C          -3.1622    4.7502    8.5833 C.ar    1  UNL1       -0.0600
      3 C          -2.3672    4.3578    7.5244 C.ar    1  UNL1       -0.0407
      4 C          -2.2343    3.0089    7.2202 C.ar    1  UNL1        0.0300
      5 C          -2.9062    2.0594    7.9795 C.ar    1  UNL1       -0.0407
      6 C          -3.6954    2.4584    9.0403 C.ar    1  UNL1       -0.0600
      7 N          -1.4314    2.6087    6.1496 N.pl3   1  UNL1       -0.3198
      8 C          -1.4337    1.1460    6.0077 C.3     1  UNL1        0.0525
      9 C          -0.4827    0.7443    4.8777 C.3     1  UNL1       -0.0157
     10 C          -0.9059    2.8550    3.7712 C.3     1  UNL1       -0.0157
     11 C          -1.8568    3.2567    4.9011 C.3     1  UNL1        0.0525
     12 C          -0.0638    0.9713    2.5033 C.3     1  UNL1       -0.0030
     13 C          -0.4544   -0.4444    2.0744 C.3     1  UNL1        0.1177
     14 H          -0.3220   -1.1278    2.9132 H       1  UNL1        0.0670
     15 C           0.4338   -0.8879    0.9102 C.3     1  UNL1        0.0751
     16 O           0.1490   -2.2501    0.5858 O.3     1  UNL1       -0.3923
     17 O          -1.8223   -0.4566    1.6613 O.3     1  UNL1       -0.3842
     18 H          -4.4463    4.1115   10.1681 H       1  UNL1        0.0618
     19 H          -3.2657    5.7987    8.8206 H       1  UNL1        0.0618
     20 H          -1.8496    5.0989    6.9333 H       1  UNL1        0.0636
     21 H          -2.8086    1.0102    7.7429 H       1  UNL1        0.0636
     22 H          -4.2149    1.7204    9.6336 H       1  UNL1        0.0618
     23 H          -2.4420    0.8050    5.7729 H       1  UNL1        0.0516
     24 H          -1.1031    0.6896    6.9407 H       1  UNL1        0.0516
     25 H          -0.5048   -0.3382    4.7514 H       1  UNL1        0.0830
     26 H           0.5305    1.0610    5.1249 H       1  UNL1        0.0830
     27 H           0.1024    3.1960    4.0060 H       1  UNL1        0.0830
     28 H          -1.2364    3.3114    2.8382 H       1  UNL1        0.0830
     29 H          -2.8700    2.9397    4.6538 H       1  UNL1        0.0516
     30 H          -1.8348    4.3391    5.0274 H       1  UNL1        0.0516
     31 H           0.9823    0.9826    2.8096 H       1  UNL1        0.0841
     32 H          -0.2050    1.6563    1.6673 H       1  UNL1        0.0841
     33 H           1.4815   -0.7938    1.1961 H       1  UNL1        0.0585
     34 H           0.2362   -0.2587    0.0423 H       1  UNL1        0.0585
     35 H           0.6768   -2.5989   -0.1456 H       1  UNL1        0.2095
     36 H          -2.0137    0.1301    0.9169 H       1  UNL1        0.2101
     37 N          -0.9346    1.3846    3.6244 N.4     1  UNL1        0.2393
     38 H          -1.8973    1.0877    3.4261 H       1  UNL1        0.2035
@<TRIPOS>UNITY_ATOM_ATTR
37 1
charge 1
@<TRIPOS>BOND
     1     1     6   ar
     2     1     2   ar
     3     1    18    1
     4     2     3   ar
     5     2    19    1
     6     3     4   ar
     7     3    20    1
     8     4     5   ar
     9     4     7    1
    10     5     6   ar
    11     5    21    1
    12     6    22    1
    13     7    11    1
    14     7     8    1
    15     8     9    1
    16     8    23    1
    17     8    24    1
    18     9    25    1
    19     9    26    1
    20     9    37    1
    21    10    11    1
    22    10    27    1
    23    10    28    1
    24    10    37    1
    25    11    29    1
    26    11    30    1
    27    12    13    1
    28    12    31    1
    29    12    32    1
    30    12    37    1
    31    13    14    1
    32    13    15    1
    33    13    17    1
    34    15    16    1
    35    15    33    1
    36    15    34    1
    37    16    35    1
    38    17    36    1
    39    37    38    1
