@<TRIPOS>MOLECULE
ZINC00601249
 54 56 0 0 0
SMALL
GASTEIGER

@<TRIPOS>ATOM
      1 C           0.0111    1.0724    2.5063 C.3     1  UNL1       -0.0648
      2 C          -0.7288    1.5792    1.2668 C.3     1  UNL1       -0.0476
      3 C          -0.0127    1.0858    0.0080 C.3     1  UNL1        0.0239
      4 C          -0.7416    1.5850   -1.2129 C.2     1  UNL1        0.2156
      5 O          -1.7359    2.2682   -1.0884 O.2     1  UNL1       -0.2756
      6 N          -0.2884    1.2723   -2.4431 N.am    1  UNL1       -0.2999
      7 C          -1.0272    1.7711   -3.6197 C.3     1  UNL1        0.0161
      8 C          -0.0598    2.2686   -4.7122 C.3     1  UNL1       -0.0213
      9 C           1.0958    3.0078   -4.0746 C.3     1  UNL1        0.0164
     10 N           2.1906    2.0689   -3.8352 N.pl3   1  UNL1       -0.2980
     11 C           2.1547    1.3619   -2.6106 C.3     1  UNL1        0.0307
     12 C           0.9018    0.4546   -2.5602 C.3     1  UNL1        0.0305
     13 C           3.4181    2.6811   -4.0186 C.ar    1  UNL1        0.2201
     14 N           4.5073    1.9379   -3.9801 N.ar    1  UNL1       -0.2141
     15 C           5.7163    2.4949   -4.1535 C.ar    1  UNL1        0.0816
     16 C           6.8908    1.7331   -4.1187 C.ar    1  UNL1        0.0099
     17 C           8.1073    2.3523   -4.3028 C.ar    1  UNL1        0.1635
     18 C           8.1806    3.7346   -4.5237 C.ar    1  UNL1        0.1623
     19 C           7.0477    4.4962   -4.5619 C.ar    1  UNL1       -0.0038
     20 C           5.7981    3.8912   -4.3777 C.ar    1  UNL1        0.0437
     21 C           4.5952    4.6372   -4.4086 C.ar    1  UNL1        0.1291
     22 N           3.4503    3.9934   -4.2317 N.ar    1  UNL1       -0.1992
     23 N           4.6140    5.9996   -4.6235 N.pl3   1  UNL1       -0.3425
     24 O           9.3935    4.3237   -4.7023 O.3     1  UNL1       -0.4914
     25 C           9.4027    5.7355   -4.9232 C.3     1  UNL1        0.0790
     26 O           9.2483    1.6157   -4.2695 O.3     1  UNL1       -0.4914
     27 C           9.1079    0.2122   -4.0401 C.3     1  UNL1        0.0790
     28 H          -0.4990    1.4239    3.4031 H       1  UNL1        0.0230
     29 H           0.0259   -0.0175    2.5003 H       1  UNL1        0.0230
     30 H           1.0337    1.4497    2.4986 H       1  UNL1        0.0230
     31 H          -0.7436    2.6691    1.2728 H       1  UNL1        0.0267
     32 H          -1.7514    1.2020    1.2746 H       1  UNL1        0.0267
     33 H           0.0021   -0.0041    0.0020 H       1  UNL1        0.0358
     34 H           1.0099    1.4631    0.0003 H       1  UNL1        0.0358
     35 H          -1.6424    0.9664   -4.0222 H       1  UNL1        0.0465
     36 H          -1.6732    2.5937   -3.3132 H       1  UNL1        0.0465
     37 H          -0.5901    2.9387   -5.3889 H       1  UNL1        0.0296
     38 H           0.3206    1.4142   -5.2720 H       1  UNL1        0.0296
     39 H           0.7734    3.4408   -3.1277 H       1  UNL1        0.0465
     40 H           1.4346    3.7999   -4.7424 H       1  UNL1        0.0465
     41 H           2.1209    2.0716   -1.7840 H       1  UNL1        0.0480
     42 H           3.0504    0.7472   -2.5214 H       1  UNL1        0.0480
     43 H           0.9705   -0.2112   -1.6999 H       1  UNL1        0.0480
     44 H           0.8466   -0.1376   -3.4736 H       1  UNL1        0.0480
     45 H           6.8431    0.6676   -3.9491 H       1  UNL1        0.0677
     46 H           7.1151    5.5604   -4.7331 H       1  UNL1        0.0663
     47 H           5.4584    6.4581   -4.7558 H       1  UNL1        0.1437
     48 H           3.7827    6.4991   -4.6423 H       1  UNL1        0.1437
     49 H          10.4301    6.0768   -5.0499 H       1  UNL1        0.0660
     50 H           8.8298    5.9665   -5.8212 H       1  UNL1        0.0660
     51 H           8.9552    6.2402   -4.0669 H       1  UNL1        0.0660
     52 H           8.6251    0.0480   -3.0767 H       1  UNL1        0.0660
     53 H           8.4992   -0.2262   -4.8310 H       1  UNL1        0.0660
     54 H          10.0923   -0.2558   -4.0376 H       1  UNL1        0.0660
@<TRIPOS>BOND
     1     1     2    1
     2     1    28    1
     3     1    29    1
     4     1    30    1
     5     2     3    1
     6     2    31    1
     7     2    32    1
     8     3     4    1
     9     3    33    1
    10     3    34    1
    11     4     5    2
    12     4     6   am
    13     6    12    1
    14     6     7    1
    15     7     8    1
    16     7    35    1
    17     7    36    1
    18     8     9    1
    19     8    37    1
    20     8    38    1
    21     9    10    1
    22     9    39    1
    23     9    40    1
    24    10    11    1
    25    10    13    1
    26    11    12    1
    27    11    41    1
    28    11    42    1
    29    12    43    1
    30    12    44    1
    31    13    22   ar
    32    13    14   ar
    33    14    15   ar
    34    15    20   ar
    35    15    16   ar
    36    16    17   ar
    37    16    45    1
    38    17    18   ar
    39    17    26    1
    40    18    19   ar
    41    18    24    1
    42    19    20   ar
    43    19    46    1
    44    20    21   ar
    45    21    22   ar
    46    21    23    1
    47    23    47    1
    48    23    48    1
    49    24    25    1
    50    25    49    1
    51    25    50    1
    52    25    51    1
    53    26    27    1
    54    27    52    1
    55    27    53    1
    56    27    54    1
