@<TRIPOS>MOLECULE
ZINC04523361
 43 45 0 0 0
SMALL
GASTEIGER

@<TRIPOS>ATOM
      1 C           1.3628    4.4083   -1.3016 C.3     1  UNL1       -0.0486
      2 C           1.2285    3.0273   -1.9463 C.3     1  UNL1        0.0366
      3 CA          2.1075    1.9708   -1.2218 C.3     1  UNL1        0.0807
      4 HA          2.2882    1.1350   -1.8977 H       1  UNL1        0.0576
      5 N           1.4630    1.4700   -0.0040 N.am    1  UNL1       -0.2761
      6 C          -0.0187    1.5257    0.0104 C.3     1  UNL1        0.1003
      7 H          -0.4823    1.9923    0.8796 H       1  UNL1        0.0640
      8 S          -0.4300    2.2804   -1.6141 S.3     1  UNL1       -0.1275
      9 CA          0.0021   -0.0041    0.0020 C.3     1  UNL1        0.1278
     10 HA         -0.5076   -0.4546    0.8537 H       1  UNL1        0.0622
     11 C           1.5016    0.1135    0.1783 C.2     1  UNL1        0.2401
     12 O           2.3900   -0.6830    0.3956 O.2     1  UNL1       -0.2734
     13 N          -0.3970   -0.5924   -1.2790 N.am    1  UNL1       -0.2968
     14 C          -0.9081   -1.8388   -1.3180 C.2     1  UNL1        0.2665
     15 O          -1.0376   -2.4735   -0.2926 O.2     1  UNL1       -0.2692
     16 CA         -1.3185   -2.4440   -2.6357 C.3     1  UNL1        0.0789
     17 HA         -0.5886   -2.1786   -3.4005 H       1  UNL1        0.1002
     18 C          -2.6739   -1.9164   -3.0303 C.ar    1  UNL1        0.0091
     19 C          -3.8161   -2.4583   -2.4710 C.ar    1  UNL1       -0.0528
     20 C          -5.0591   -1.9707   -2.8290 C.ar    1  UNL1       -0.0613
     21 C          -5.1605   -0.9491   -3.7547 C.ar    1  UNL1       -0.0617
     22 C          -4.0185   -0.4109   -4.3179 C.ar    1  UNL1       -0.0613
     23 C          -2.7753   -0.8945   -3.9556 C.ar    1  UNL1       -0.0528
     24 C           3.4283    2.5976   -0.8564 C.2     1  UNL1        0.0635
     25 O           3.6456    2.9266    0.2857 O.co2   1  UNL1       -0.5478
     26 C           1.5320    3.0791   -3.4450 C.3     1  UNL1       -0.0486
     27 H           2.4022    4.7329   -1.3511 H       1  UNL1        0.0244
     28 H           0.7339    5.1211   -1.8350 H       1  UNL1        0.0244
     29 H           1.0480    4.3549   -0.2594 H       1  UNL1        0.0244
     30 H          -0.2933   -0.0848   -2.0990 H       1  UNL1        0.1497
     31 H          -3.7371   -3.2597   -1.7514 H       1  UNL1        0.0622
     32 H          -5.9513   -2.3910   -2.3888 H       1  UNL1        0.0618
     33 H          -6.1318   -0.5713   -4.0377 H       1  UNL1        0.0618
     34 H          -4.0977    0.3873   -5.0411 H       1  UNL1        0.0618
     35 H          -1.8831   -0.4742   -4.3959 H       1  UNL1        0.0622
     36 H1         -0.4702   -4.2902   -2.3040 H       1  UNL1        0.2005
     37 H2         -2.0514   -4.1775   -1.8013 H       1  UNL1        0.2005
     38 H           1.3346    2.1037   -3.8897 H       1  UNL1        0.0244
     39 H           0.8983    3.8292   -3.9183 H       1  UNL1        0.0244
     40 H           2.5793    3.3415   -3.5948 H       1  UNL1        0.0244
     41 N          -1.3890   -3.9119   -2.5282 N.4     1  UNL1        0.2307
     42 H3         -1.7020   -4.3014   -3.4252 H       1  UNL1        0.2005
     43 OXT         4.3635    2.7905   -1.7999 O.co2   1  UNL1       -0.5478
@<TRIPOS>UNITY_ATOM_ATTR
41 1
charge 1
43 1
charge -1
@<TRIPOS>BOND
     1     1     2    1
     2     1    27    1
     3     1    28    1
     4     1    29    1
     5     2     8    1
     6     2     3    1
     7     2    26    1
     8     3     4    1
     9     3     5    1
    10     3    24    1
    11     5    11   am
    12     5     6    1
    13     6     7    1
    14     6     8    1
    15     6     9    1
    16     9    10    1
    17     9    11    1
    18     9    13    1
    19    11    12    2
    20    13    14   am
    21    13    30    1
    22    14    15    2
    23    14    16    1
    24    16    17    1
    25    16    18    1
    26    16    41    1
    27    18    23   ar
    28    18    19   ar
    29    19    20   ar
    30    19    31    1
    31    20    21   ar
    32    20    32    1
    33    21    22   ar
    34    21    33    1
    35    22    23   ar
    36    22    34    1
    37    23    35    1
    38    24    25   ar
    39    24    43   ar
    40    26    38    1
    41    26    39    1
    42    26    40    1
    43    36    41    1
    44    37    41    1
    45    41    42    1
