@<TRIPOS>MOLECULE
ZINC03831108
 54 57 0 0 0
SMALL
GASTEIGER

@<TRIPOS>ATOM
      1 C          -0.7527    1.5927   -1.2315 C.3     1  UNL1       -0.0635
      2 C          -0.0127    1.0858    0.0080 C.3     1  UNL1       -0.0352
      3 CA         -0.7288    1.5792    1.2668 C.3     1  UNL1        0.0460
      4 HA         -1.7755    1.2768    1.2315 H       1  UNL1        0.0521
      5 C          -0.0638    0.9713    2.5033 C.3     1  UNL1        0.0625
      6 O           1.3335    1.2706    2.4884 O.3     1  UNL1       -0.3932
      7 N          -0.6447    3.0402    1.3356 N.am    1  UNL1       -0.3096
      8 C          -1.5466    3.7987    0.6816 C.2     1  UNL1        0.2253
      9 O          -2.4279    3.2717    0.0362 O.2     1  UNL1       -0.2750
     10 C          -1.4601    5.3015    0.7523 C.3     1  UNL1        0.0942
     11 H          -1.5584    5.6265    1.7881 H       1  UNL1        0.0490
     12 C          -2.5774    5.9234   -0.0931 C.3     1  UNL1       -0.0166
     13 C          -1.1355    6.1067   -2.0498 C.3     1  UNL1        0.0092
     14 H          -1.3475    7.1438   -2.3096 H       1  UNL1        0.0907
     15 C          -0.7979    5.3778   -3.3577 C.3     1  UNL1        0.0219
     16 C           0.5357    5.8577   -3.8679 C.ar    1  UNL1       -0.0159
     17 C           1.1214    5.9183   -5.0592 C.ar    1  UNL1        0.0088
     18 N           2.3937    6.4565   -4.9431 N.ar    1  UNL1       -0.3494
     19 C           2.6631    6.7637   -3.6437 C.ar    1  UNL1        0.0497
     20 C           1.5129    6.4062   -2.9348 C.ar    1  UNL1        0.0108
     21 C           1.3217    6.5730   -1.5419 C.ar    1  UNL1       -0.0074
     22 C           2.3904    7.0923   -0.8559 C.ar    1  UNL1       -0.0534
     23 C           3.5497    7.4466   -1.5426 C.ar    1  UNL1       -0.0592
     24 C           3.7224    7.3024   -2.9144 C.ar    1  UNL1       -0.0376
     25 C           0.0009    6.1224   -1.0620 C.2     1  UNL1        0.0052
     26 C          -0.1367    5.7596    0.2007 C.2     1  UNL1       -0.0581
     27 C           3.3180    6.6654   -6.0603 C.3     1  UNL1        0.0119
     28 C          -3.5236    5.9061   -2.3190 C.3     1  UNL1       -0.0425
     29 H          -0.2425    1.2411   -2.1283 H       1  UNL1        0.0230
     30 H          -1.7753    1.2154   -1.2238 H       1  UNL1        0.0230
     31 H          -0.7675    2.6825   -1.2255 H       1  UNL1        0.0230
     32 H           0.0021   -0.0041    0.0020 H       1  UNL1        0.0281
     33 H           1.0099    1.4631    0.0003 H       1  UNL1        0.0281
     34 H1         -0.5156    1.3909    3.4022 H       1  UNL1        0.0575
     35 H2         -0.2039   -0.1096    2.4969 H       1  UNL1        0.0575
     36 H           1.8200    0.9153    3.2448 H       1  UNL1        0.2095
     37 H           0.0602    3.4616    1.8518 H       1  UNL1        0.1491
     38 H          -3.5436    5.5466    0.2423 H       1  UNL1        0.0825
     39 H          -2.5499    7.0087    0.0045 H       1  UNL1        0.0825
     40 H          -0.7520    4.3043   -3.1743 H       1  UNL1        0.0372
     41 H          -1.5680    5.5875   -4.1000 H       1  UNL1        0.0372
     42 H           0.6703    5.5949   -5.9857 H       1  UNL1        0.0812
     43 H           2.3281    7.2350    0.2128 H       1  UNL1        0.0624
     44 H           4.3679    7.8602   -0.9717 H       1  UNL1        0.0618
     45 H           4.6425    7.5968   -3.3973 H       1  UNL1        0.0638
     46 H           0.7224    5.7929    0.8543 H       1  UNL1        0.0586
     47 H           3.1621    7.6592   -6.4799 H       1  UNL1        0.0456
     48 H           4.3444    6.5784   -5.7039 H       1  UNL1        0.0456
     49 H           3.1352    5.9140   -6.8285 H       1  UNL1        0.0456
     50 H          -3.3874    5.5149   -3.3272 H       1  UNL1        0.0778
     51 H          -4.4253    5.4773   -1.8817 H       1  UNL1        0.0778
     52 H          -3.6203    6.9910   -2.3603 H       1  UNL1        0.0778
     53 N          -2.3690    5.5068   -1.5017 N.4     1  UNL1        0.2395
     54 H          -2.2790    4.4844   -1.5319 H       1  UNL1        0.2037
@<TRIPOS>UNITY_ATOM_ATTR
53 1
charge 1
@<TRIPOS>BOND
     1     1     2    1
     2     1    29    1
     3     1    30    1
     4     1    31    1
     5     2     3    1
     6     2    32    1
     7     2    33    1
     8     3     4    1
     9     3     5    1
    10     3     7    1
    11     5     6    1
    12     5    34    1
    13     5    35    1
    14     6    36    1
    15     7     8   am
    16     7    37    1
    17     8     9    2
    18     8    10    1
    19    10    11    1
    20    10    26    1
    21    10    12    1
    22    12    38    1
    23    12    39    1
    24    12    53    1
    25    13    14    1
    26    13    25    1
    27    13    15    1
    28    13    53    1
    29    15    16    1
    30    15    40    1
    31    15    41    1
    32    16    20   ar
    33    16    17   ar
    34    17    18   ar
    35    17    42    1
    36    18    19   ar
    37    18    27    1
    38    19    24   ar
    39    19    20   ar
    40    20    21   ar
    41    21    22   ar
    42    21    25    1
    43    22    23   ar
    44    22    43    1
    45    23    24   ar
    46    23    44    1
    47    24    45    1
    48    25    26    2
    49    26    46    1
    50    27    47    1
    51    27    48    1
    52    27    49    1
    53    28    50    1
    54    28    51    1
    55    28    52    1
    56    28    53    1
    57    53    54    1
