@<TRIPOS>MOLECULE
ZINC01542901
 57 59 0 0 0
SMALL
GASTEIGER

@<TRIPOS>ATOM
      1 C          -1.1908   -3.5078   -0.0049 C.3     1  UNL1       -0.0244
      2 C          -0.4225   -2.2114   -0.0058 C.ar    1  UNL1        0.0140
      3 C           0.9156   -2.1084   -0.0180 C.ar    1  UNL1       -0.0302
      4 C           1.2351   -0.6788   -0.0134 C.ar    1  UNL1        0.0415
      5 C           0.0021   -0.0041    0.0020 C.ar    1  UNL1        0.0502
      6 N          -0.9858   -0.9633    0.0063 N.ar    1  UNL1       -0.3580
      7 H          -1.9386   -0.7820    0.0164 H       1  UNL1        0.1656
      8 C          -0.0168    1.3876    0.0097 C.ar    1  UNL1       -0.0376
      9 C           1.1664    2.0931    0.0022 C.ar    1  UNL1       -0.0563
     10 C           2.3859    1.4315   -0.0131 C.ar    1  UNL1       -0.0192
     11 C           2.4302    0.0506   -0.0210 C.ar    1  UNL1        0.1298
     12 O           3.6256   -0.5953   -0.0364 O.3     1  UNL1       -0.4874
     13 C           4.8016    0.2165   -0.0433 C.3     1  UNL1        0.1315
     14 C           6.0407   -0.6808   -0.0605 C.3     1  UNL1        0.1762
     15 H           6.9345   -0.0643   -0.1553 H       1  UNL1        0.0823
     16 C           5.9568   -1.6433   -1.2469 C.3     1  UNL1        0.0081
     17 C           7.1005   -3.4444   -2.3918 C.3     1  UNL1       -0.0203
     18 C           7.0434   -2.6616   -3.7052 C.3     1  UNL1       -0.0193
     19 C           8.3532   -4.3227   -2.3757 C.3     1  UNL1       -0.0193
     20 C           5.8570   -4.3274   -2.2699 C.3     1  UNL1       -0.0193
     21 O           6.1055   -1.4404    1.1753 O.3     1  UNL1       -0.4490
     22 C           7.3308   -1.7756    1.6236 C.2     1  UNL1        0.3397
     23 O           8.3181   -1.4425    0.9992 O.2     1  UNL1       -0.2449
     24 C           7.4738   -2.5483    2.8746 C.ar    1  UNL1        0.0590
     25 C           6.3413   -2.9278    3.5977 C.ar    1  UNL1       -0.0478
     26 C           6.4817   -3.6542    4.7620 C.ar    1  UNL1       -0.0610
     27 C           7.7418   -3.9968    5.2196 C.ar    1  UNL1       -0.0617
     28 C           8.8686   -3.6190    4.5109 C.ar    1  UNL1       -0.0610
     29 C           8.7423   -2.8974    3.3421 C.ar    1  UNL1       -0.0478
     30 H          -1.3859   -3.8152   -1.0323 H       1  UNL1        0.0292
     31 H          -0.6056   -4.2766    0.4996 H       1  UNL1        0.0292
     32 H          -2.1367   -3.3692    0.5187 H       1  UNL1        0.0292
     33 H           1.6227   -2.9247   -0.0295 H       1  UNL1        0.0642
     34 H          -0.9594    1.9146    0.0170 H       1  UNL1        0.0638
     35 H           1.1445    3.1728    0.0078 H       1  UNL1        0.0619
     36 H           3.3050    1.9987   -0.0189 H       1  UNL1        0.0654
     37 H           4.8000    0.8509   -0.9297 H       1  UNL1        0.0736
     38 H           4.8175    0.8407    0.8502 H       1  UNL1        0.0736
     39 H           5.0630   -2.2599   -1.1521 H       1  UNL1        0.0852
     40 H           5.9082   -1.0732   -2.1746 H       1  UNL1        0.0852
     41 H           7.9293   -2.0326   -3.7920 H       1  UNL1        0.0287
     42 H           7.0092   -3.3587   -4.5424 H       1  UNL1        0.0287
     43 H           6.1509   -2.0359   -3.7167 H       1  UNL1        0.0287
     44 H           8.3939   -4.8803   -1.4400 H       1  UNL1        0.0287
     45 H           8.3190   -5.0198   -3.2129 H       1  UNL1        0.0287
     46 H           9.2391   -3.6936   -2.4625 H       1  UNL1        0.0287
     47 H           4.9645   -3.7017   -2.2814 H       1  UNL1        0.0287
     48 H           5.8228   -5.0245   -3.1071 H       1  UNL1        0.0287
     49 H           5.8977   -4.8851   -1.3342 H       1  UNL1        0.0287
     50 H           5.3574   -2.6571    3.2440 H       1  UNL1        0.0626
     51 H           5.6064   -3.9519    5.3202 H       1  UNL1        0.0618
     52 H           7.8463   -4.5620    6.1339 H       1  UNL1        0.0618
     53 H           9.8491   -3.8901    4.8735 H       1  UNL1        0.0618
     54 H           9.6226   -2.6028    2.7900 H       1  UNL1        0.0626
     55 N           7.1545   -2.5044   -1.2562 N.4     1  UNL1        0.2334
     56 H           7.1965   -3.0356   -0.3786 H       1  UNL1        0.2020
     57 H           7.9928   -1.9177   -1.3418 H       1  UNL1        0.2020
@<TRIPOS>UNITY_ATOM_ATTR
55 1
charge 1
@<TRIPOS>BOND
     1     1     2    1
     2     1    30    1
     3     1    31    1
     4     1    32    1
     5     2     6   ar
     6     2     3   ar
     7     3     4   ar
     8     3    33    1
     9     4    11   ar
    10     4     5   ar
    11     5     6   ar
    12     5     8   ar
    13     6     7    1
    14     8     9   ar
    15     8    34    1
    16     9    10   ar
    17     9    35    1
    18    10    11   ar
    19    10    36    1
    20    11    12    1
    21    12    13    1
    22    13    14    1
    23    13    37    1
    24    13    38    1
    25    14    15    1
    26    14    16    1
    27    14    21    1
    28    16    39    1
    29    16    40    1
    30    16    55    1
    31    17    18    1
    32    17    19    1
    33    17    20    1
    34    17    55    1
    35    18    41    1
    36    18    42    1
    37    18    43    1
    38    19    44    1
    39    19    45    1
    40    19    46    1
    41    20    47    1
    42    20    48    1
    43    20    49    1
    44    21    22    1
    45    22    23    2
    46    22    24    1
    47    24    29   ar
    48    24    25   ar
    49    25    26   ar
    50    25    50    1
    51    26    27   ar
    52    26    51    1
    53    27    28   ar
    54    27    52    1
    55    28    29   ar
    56    28    53    1
    57    29    54    1
    58    55    56    1
    59    55    57    1
