@<TRIPOS>MOLECULE
ZINC11616654
 50 53 0 0 0
SMALL
GASTEIGER

@<TRIPOS>ATOM
      1 C          -2.5038   -6.4797   -2.7937 C.3     1  UNL1       -0.0244
      2 C          -3.1009   -5.0951   -2.5346 C.3     1  UNL1       -0.0325
      3 N          -3.1640   -4.3451   -3.7961 N.4     1  UNL1        0.2492
      4 C          -3.6827   -2.9588   -3.5868 C.3     1  UNL1        0.0139
      5 H          -4.7666   -2.9261   -3.4763 H       1  UNL1        0.0880
      6 C          -2.9381   -2.4072   -2.3391 C.3     1  UNL1        0.0303
      7 C          -1.4486   -2.2873   -2.6737 C.3     1  UNL1        0.1135
      8 C          -0.9201   -3.6361   -3.1703 C.3     1  UNL1        0.0303
      9 C          -1.7981   -4.1151   -4.3375 C.3     1  UNL1        0.0139
     10 H          -1.3907   -5.0036   -4.8199 H       1  UNL1        0.0880
     11 C          -1.9581   -2.9356   -5.3241 C.3     1  UNL1        0.1332
     12 H          -1.7718   -3.1245   -6.3813 H       1  UNL1        0.0681
     13 C          -3.1967   -2.1651   -4.8214 C.3     1  UNL1        0.1332
     14 H          -3.9496   -1.7571   -5.4959 H       1  UNL1        0.0681
     15 O          -1.8466   -1.6088   -4.8053 O.3     1  UNL1       -0.3566
     16 O          -0.7168   -1.8902   -1.4842 O.3     1  UNL1       -0.4605
     17 C          -0.5715   -0.5732   -1.2694 C.2     1  UNL1        0.3171
     18 O          -1.0402    0.2215   -2.0496 O.2     1  UNL1       -0.2501
     19 C           0.1763   -0.0857   -0.0552 C.3     1  UNL1        0.1044
     20 H           1.1988   -0.4624   -0.0828 H       1  UNL1        0.0485
     21 C          -0.5198   -0.5919    1.2097 C.3     1  UNL1        0.0612
     22 O          -0.4362   -2.0175    1.2614 O.3     1  UNL1       -0.3939
     23 C           0.1961    1.4211   -0.0489 C.ar    1  UNL1       -0.0315
     24 C          -0.9916    2.1279   -0.0215 C.ar    1  UNL1       -0.0577
     25 C          -0.9733    3.5101   -0.0113 C.ar    1  UNL1       -0.0615
     26 C           0.2325    4.1856   -0.0378 C.ar    1  UNL1       -0.0617
     27 C           1.4201    3.4789   -0.0705 C.ar    1  UNL1       -0.0615
     28 C           1.4019    2.0966   -0.0764 C.ar    1  UNL1       -0.0577
     29 C          -3.9979   -5.0501   -4.7787 C.3     1  UNL1       -0.0406
     30 H          -2.4570   -7.0362   -1.8577 H       1  UNL1        0.0281
     31 H          -3.1298   -7.0179   -3.5055 H       1  UNL1        0.0281
     32 H          -1.4992   -6.3714   -3.2027 H       1  UNL1        0.0281
     33 H          -2.4749   -4.5569   -1.8228 H       1  UNL1        0.0812
     34 H          -4.1055   -5.2033   -2.1256 H       1  UNL1        0.0812
     35 H          -3.0689   -3.0802   -1.4917 H       1  UNL1        0.0357
     36 H          -3.3369   -1.4235   -2.0912 H       1  UNL1        0.0357
     37 H          -1.3118   -1.5358   -3.4513 H       1  UNL1        0.0738
     38 H           0.1092   -3.5221   -3.5105 H       1  UNL1        0.0357
     39 H          -0.9602   -4.3645   -2.3604 H       1  UNL1        0.0357
     40 H          -0.0323   -0.1673    2.0873 H       1  UNL1        0.0568
     41 H          -1.5669   -0.2896    1.1939 H       1  UNL1        0.0568
     42 H          -0.8578   -2.4083    2.0390 H       1  UNL1        0.2094
     43 H          -1.9337    1.6002   -0.0046 H       1  UNL1        0.0621
     44 H          -1.9011    4.0622    0.0147 H       1  UNL1        0.0618
     45 H           0.2467    5.2655   -0.0325 H       1  UNL1        0.0618
     46 H           2.3621    4.0066   -0.0913 H       1  UNL1        0.0618
     47 H           2.3297    1.5445   -0.1020 H       1  UNL1        0.0621
     48 H          -3.5452   -6.0130   -5.0152 H       1  UNL1        0.0778
     49 H          -4.9932   -5.2086   -4.3634 H       1  UNL1        0.0778
     50 H          -4.0742   -4.4516   -5.6865 H       1  UNL1        0.0778
@<TRIPOS>UNITY_ATOM_ATTR
3 1
charge 1
@<TRIPOS>BOND
     1     1     2    1
     2     1    30    1
     3     1    31    1
     4     1    32    1
     5     2     3    1
     6     2    33    1
     7     2    34    1
     8     3     9    1
     9     3     4    1
    10     3    29    1
    11     4     5    1
    12     4    13    1
    13     4     6    1
    14     6     7    1
    15     6    35    1
    16     6    36    1
    17     7     8    1
    18     7    16    1
    19     7    37    1
    20     8     9    1
    21     8    38    1
    22     8    39    1
    23     9    10    1
    24     9    11    1
    25    11    12    1
    26    11    15    1
    27    11    13    1
    28    13    14    1
    29    13    15    1
    30    16    17    1
    31    17    18    2
    32    17    19    1
    33    19    20    1
    34    19    21    1
    35    19    23    1
    36    21    22    1
    37    21    40    1
    38    21    41    1
    39    22    42    1
    40    23    28   ar
    41    23    24   ar
    42    24    25   ar
    43    24    43    1
    44    25    26   ar
    45    25    44    1
    46    26    27   ar
    47    26    45    1
    48    27    28   ar
    49    27    46    1
    50    28    47    1
    51    29    48    1
    52    29    49    1
    53    29    50    1
