@<TRIPOS>MOLECULE
ZINC03785268
 68 69 0 0 0
SMALL
GASTEIGER

@<TRIPOS>ATOM
      1 C         -16.4414   13.2074   10.4675 C.ar    1  UNL1       -0.0617
      2 C         -16.1912   11.8607   10.6536 C.ar    1  UNL1       -0.0615
      3 C         -14.9010   11.3762   10.5466 C.ar    1  UNL1       -0.0586
      4 C         -13.8609   12.2385   10.2538 C.ar    1  UNL1       -0.0474
      5 C         -14.1104   13.5861   10.0732 C.ar    1  UNL1       -0.0586
      6 C         -15.4013   14.0698   10.1751 C.ar    1  UNL1       -0.0615
      7 C         -12.4543   11.7104   10.1376 C.3     1  UNL1       -0.0276
      8 C         -12.1820   11.2990    8.6893 C.3     1  UNL1       -0.0470
      9 C         -10.7539   10.7628    8.5712 C.3     1  UNL1       -0.0292
     10 C         -10.4817   10.3515    7.1229 C.3     1  UNL1        0.0477
     11 O          -9.1479    9.8507    7.0127 O.3     1  UNL1       -0.3798
     12 C          -8.7898    9.4365    5.6927 C.3     1  UNL1        0.0477
     13 C          -7.3491    8.9215    5.6931 C.3     1  UNL1       -0.0295
     14 C          -6.9657    8.4780    4.2798 C.3     1  UNL1       -0.0508
     15 C          -5.5250    7.9629    4.2802 C.3     1  UNL1       -0.0482
     16 C          -5.1416    7.5195    2.8669 C.3     1  UNL1       -0.0126
     17 C          -3.7009    7.0044    2.8673 C.3     1  UNL1       -0.0336
     18 C          -1.9526    6.0769    1.4723 C.3     1  UNL1       -0.0028
     19 C          -1.6065    5.6440    0.0462 C.3     1  UNL1        0.1197
     20 H          -2.3422    4.9191   -0.3021 H       1  UNL1        0.0698
     21 C          -0.2365    5.0165    0.0303 C.ar    1  UNL1       -0.0135
     22 C           0.8901    5.8185    0.0238 C.ar    1  UNL1       -0.0525
     23 C           2.1469    5.2458    0.0092 C.ar    1  UNL1       -0.0195
     24 C           2.2786    3.8645    0.0011 C.ar    1  UNL1        0.1222
     25 C           1.1470    3.0623    0.0076 C.ar    1  UNL1        0.0195
     26 C          -0.1080    3.6401    0.0169 C.ar    1  UNL1       -0.0471
     27 C           1.2864    1.5618   -0.0018 C.3     1  UNL1        0.0727
     28 O          -0.0110    0.9628    0.0073 O.3     1  UNL1       -0.3903
     29 O           3.5141    3.2987   -0.0138 O.3     1  UNL1       -0.5064
     30 O          -1.6178    6.7850   -0.8140 O.3     1  UNL1       -0.3819
     31 H         -17.4495   13.5859   10.5507 H       1  UNL1        0.0618
     32 H         -17.0037   11.1871   10.8824 H       1  UNL1        0.0618
     33 H         -14.7054   10.3241   10.6921 H       1  UNL1        0.0620
     34 H         -13.2972   14.2605    9.8488 H       1  UNL1        0.0620
     35 H         -15.5968   15.1220   10.0300 H       1  UNL1        0.0618
     36 H         -12.3361   10.8448   10.7894 H       1  UNL1        0.0313
     37 H         -11.7490   12.4870   10.4334 H       1  UNL1        0.0313
     38 H         -12.3002   12.1646    8.0374 H       1  UNL1        0.0269
     39 H         -12.8873   10.5224    8.3934 H       1  UNL1        0.0269
     40 H         -10.6358    9.8973    9.2231 H       1  UNL1        0.0287
     41 H         -10.0486   11.5395    8.8670 H       1  UNL1        0.0287
     42 H         -10.5999   11.2171    6.4710 H       1  UNL1        0.0560
     43 H         -11.1870    9.5749    6.8271 H       1  UNL1        0.0560
     44 H          -8.8728   10.2831    5.0112 H       1  UNL1        0.0560
     45 H          -9.4600    8.6409    5.3672 H       1  UNL1        0.0560
     46 H          -7.2660    8.0749    6.3746 H       1  UNL1        0.0287
     47 H          -6.6789    9.7171    6.0186 H       1  UNL1        0.0287
     48 H          -7.0487    9.3246    3.5983 H       1  UNL1        0.0266
     49 H          -7.6359    7.6824    3.9543 H       1  UNL1        0.0266
     50 H          -5.4419    7.1164    4.9617 H       1  UNL1        0.0267
     51 H          -4.8548    8.7586    4.6057 H       1  UNL1        0.0267
     52 H          -5.2246    8.3660    2.1854 H       1  UNL1        0.0317
     53 H          -5.8118    6.7239    2.5414 H       1  UNL1        0.0317
     54 H          -3.6178    6.1579    3.5488 H       1  UNL1        0.0814
     55 H          -3.0307    7.8000    3.1928 H       1  UNL1        0.0814
     56 H          -1.8574    5.2239    2.1442 H       1  UNL1        0.0843
     57 H          -1.2703    6.8661    1.7881 H       1  UNL1        0.0843
     58 H           0.7871    6.8935    0.0299 H       1  UNL1        0.0622
     59 H           3.0264    5.8726    0.0046 H       1  UNL1        0.0654
     60 H          -0.9894    3.0159    0.0178 H       1  UNL1        0.0626
     61 H           1.8401    1.2428    0.8812 H       1  UNL1        0.0608
     62 H           1.8231    1.2523   -0.8987 H       1  UNL1        0.0608
     63 H           0.0021   -0.0041    0.0020 H       1  UNL1        0.2098
     64 H           3.8632    3.1396   -0.9014 H       1  UNL1        0.2921
     65 H          -0.9860    7.4728   -0.5633 H       1  UNL1        0.2105
     66 N          -3.3393    6.5791    1.5019 N.4     1  UNL1        0.2291
     67 H          -3.4233    7.3796    0.8644 H       1  UNL1        0.2014
     68 H          -3.9764    5.8327    1.1998 H       1  UNL1        0.2014
@<TRIPOS>UNITY_ATOM_ATTR
66 1
charge 1
@<TRIPOS>BOND
     1     1     6   ar
     2     1     2   ar
     3     1    31    1
     4     2     3   ar
     5     2    32    1
     6     3     4   ar
     7     3    33    1
     8     4     5   ar
     9     4     7    1
    10     5     6   ar
    11     5    34    1
    12     6    35    1
    13     7     8    1
    14     7    36    1
    15     7    37    1
    16     8     9    1
    17     8    38    1
    18     8    39    1
    19     9    10    1
    20     9    40    1
    21     9    41    1
    22    10    11    1
    23    10    42    1
    24    10    43    1
    25    11    12    1
    26    12    13    1
    27    12    44    1
    28    12    45    1
    29    13    14    1
    30    13    46    1
    31    13    47    1
    32    14    15    1
    33    14    48    1
    34    14    49    1
    35    15    16    1
    36    15    50    1
    37    15    51    1
    38    16    17    1
    39    16    52    1
    40    16    53    1
    41    17    54    1
    42    17    55    1
    43    17    66    1
    44    18    19    1
    45    18    56    1
    46    18    57    1
    47    18    66    1
    48    19    20    1
    49    19    21    1
    50    19    30    1
    51    21    26   ar
    52    21    22   ar
    53    22    23   ar
    54    22    58    1
    55    23    24   ar
    56    23    59    1
    57    24    25   ar
    58    24    29    1
    59    25    26   ar
    60    25    27    1
    61    26    60    1
    62    27    28    1
    63    27    61    1
    64    27    62    1
    65    28    63    1
    66    29    64    1
    67    30    65    1
    68    66    67    1
    69    66    68    1
