@<TRIPOS>MOLECULE
ZINC03830630
 52 56 0 0 0
SMALL
GASTEIGER

@<TRIPOS>ATOM
      1 C           2.1245    0.5466   -1.8631 C.3     1  UNL1       -0.0558
      2 C           2.2416    0.7280   -0.3512 C.3     1  UNL1        0.0111
      3 C           3.6836    0.6226    0.0834 C.3     1  UNL1       -0.0435
      4 C           4.1413   -0.8396   -0.0692 C.3     1  UNL1       -0.0485
      5 C           3.2845   -1.7548    0.7991 C.3     1  UNL1       -0.0285
      6 H           3.3424   -1.3770    1.8304 H       1  UNL1        0.0312
      7 C           1.8126   -1.6862    0.3651 C.3     1  UNL1       -0.0337
      8 H           1.2099   -2.2673    1.0965 H       1  UNL1        0.0307
      9 C           1.3731   -0.2555    0.4561 C.3     1  UNL1       -0.0289
     10 H           1.4393    0.0417    1.5335 H       1  UNL1        0.0310
     11 C          -0.0370    0.1217   -0.0100 C.3     1  UNL1       -0.0458
     12 C           0.0275    1.6778   -0.0080 C.3     1  UNL1       -0.0118
     13 C           1.5324    2.0544   -0.0116 C.3     1  UNL1        0.1317
     14 C           1.8130    3.0532   -1.0502 C.1     1  UNL1       -0.0704
     15 C           2.0374    3.8519   -1.8808 C.1     1  UNL1       -0.1163
     16 O           1.9412    2.5171    1.2715 O.3     1  UNL1       -0.3760
     17 C           1.6163   -2.3294   -0.9993 C.3     1  UNL1       -0.0459
     18 C           1.9677   -3.8252   -0.8965 C.3     1  UNL1       -0.0305
     19 C           3.4233   -3.8958   -0.4555 C.2     1  UNL1       -0.0595
     20 C           4.2595   -4.5733   -1.2398 C.2     1  UNL1       -0.0166
     21 C           5.6770   -4.6187   -0.8668 C.ar    1  UNL1        0.1633
     22 C           6.1302   -3.9866    0.2660 C.ar    1  UNL1        0.0195
     23 C           7.5043   -4.2365    0.2662 C.ar    1  UNL1        0.0738
     24 N           7.7471   -4.9581   -0.7980 N.ar    1  UNL1       -0.0858
     25 O           6.7375   -5.1831   -1.4375 O.2     1  UNL1       -0.3550
     26 C           5.2620   -3.2326    1.2107 C.3     1  UNL1       -0.0132
     27 C           3.8076   -3.1847    0.7977 C.3     1  UNL1       -0.0035
     28 C           3.0679   -3.9076    1.9319 C.3     1  UNL1       -0.0553
     29 H           1.0729    0.5552   -2.1498 H       1  UNL1        0.0236
     30 H           2.6454    1.3600   -2.3682 H       1  UNL1        0.0236
     31 H           2.5716   -0.4050   -2.1506 H       1  UNL1        0.0236
     32 H           4.3100    1.2644   -0.5411 H       1  UNL1        0.0272
     33 H           3.7866    0.9268    1.1269 H       1  UNL1        0.0272
     34 H           4.0701   -1.1486   -1.1075 H       1  UNL1        0.0268
     35 H           5.1829   -0.9099    0.2465 H       1  UNL1        0.0268
     36 H          -0.7816   -0.2246    0.7108 H       1  UNL1        0.0269
     37 H          -0.2587   -0.2642   -0.9983 H       1  UNL1        0.0269
     38 H          -0.4616    2.0738   -0.8954 H       1  UNL1        0.0303
     39 H          -0.4501    2.0651    0.8920 H       1  UNL1        0.0303
     40 H           2.2381    4.5663   -2.6236 H       1  UNL1        0.1229
     41 H           1.4799    3.3136    1.5678 H       1  UNL1        0.2114
     42 H           2.2936   -1.9030   -1.7370 H       1  UNL1        0.0271
     43 H           0.5854   -2.2274   -1.3265 H       1  UNL1        0.0271
     44 H           1.8559   -4.2886   -1.8753 H       1  UNL1        0.0310
     45 H           1.3205   -4.3075   -0.1734 H       1  UNL1        0.0310
     46 H           3.9038   -5.0767   -2.1267 H       1  UNL1        0.0655
     47 H           8.2227   -3.9013    0.9997 H       1  UNL1        0.0867
     48 H           5.6405   -2.2213    1.3183 H       1  UNL1        0.0323
     49 H           5.3166   -3.7213    2.1881 H       1  UNL1        0.0323
     50 H           1.9951   -3.8808    1.7410 H       1  UNL1        0.0238
     51 H           3.4024   -4.9438    1.9813 H       1  UNL1        0.0238
     52 H           3.2810   -3.4115    2.8787 H       1  UNL1        0.0238
@<TRIPOS>BOND
     1     1     2    1
     2     1    29    1
     3     1    30    1
     4     1    31    1
     5     2     9    1
     6     2    13    1
     7     2     3    1
     8     3     4    1
     9     3    32    1
    10     3    33    1
    11     4     5    1
    12     4    34    1
    13     4    35    1
    14     5     6    1
    15     5    27    1
    16     5     7    1
    17     7     8    1
    18     7     9    1
    19     7    17    1
    20     9    10    1
    21     9    11    1
    22    11    12    1
    23    11    36    1
    24    11    37    1
    25    12    13    1
    26    12    38    1
    27    12    39    1
    28    13    14    1
    29    13    16    1
    30    14    15    3
    31    15    40    1
    32    16    41    1
    33    17    18    1
    34    17    42    1
    35    17    43    1
    36    18    19    1
    37    18    44    1
    38    18    45    1
    39    19    27    1
    40    19    20    2
    41    20    21    1
    42    20    46    1
    43    21    25   ar
    44    21    22   ar
    45    22    23   ar
    46    22    26    1
    47    23    24   ar
    48    23    47    1
    49    24    25   ar
    50    26    27    1
    51    26    48    1
    52    26    49    1
    53    27    28    1
    54    28    50    1
    55    28    51    1
    56    28    52    1
