@<TRIPOS>MOLECULE
ZINC08551463
 45 48 0 0 0
SMALL
GASTEIGER

@<TRIPOS>ATOM
      1 C          -3.1573    2.3689   -1.5753 C.3     1  UNL1       -0.0526
      2 C          -1.9247    2.4525   -0.6728 C.3     1  UNL1        0.0293
      3 C          -1.5741    3.9012   -0.3219 C.3     1  UNL1       -0.0401
      4 C          -2.6093    4.4876    0.6332 C.3     1  UNL1       -0.0450
      5 C          -2.5789    3.6925    1.9440 C.3     1  UNL1       -0.0124
      6 H          -1.5765    3.7303    2.3706 H       1  UNL1        0.0352
      7 C          -3.5614    4.3099    2.9075 C.ar    1  UNL1       -0.0406
      8 C          -3.1709    5.4620    3.5782 C.ar    1  UNL1       -0.0545
      9 C          -4.0245    6.0798    4.4671 C.ar    1  UNL1       -0.0168
     10 C          -5.2854    5.5464    4.6927 C.ar    1  UNL1        0.1550
     11 C          -5.6727    4.3967    4.0261 C.ar    1  UNL1       -0.0137
     12 C          -4.8094    3.7741    3.1344 C.ar    1  UNL1       -0.0404
     13 C          -5.2905    2.5169    2.4582 C.3     1  UNL1       -0.0270
     14 C          -4.4335    2.2008    1.2338 C.3     1  UNL1       -0.0454
     15 C          -2.9531    2.2460    1.6482 C.3     1  UNL1       -0.0302
     16 H          -2.8425    1.6723    2.5683 H       1  UNL1        0.0310
     17 C          -2.0796    1.6128    0.6076 C.3     1  UNL1       -0.0252
     18 H          -2.4804    0.6333    0.3469 H       1  UNL1        0.0313
     19 C          -0.6242    1.4363    1.0861 C.3     1  UNL1       -0.0424
     20 C           0.1548    1.2396   -0.2350 C.3     1  UNL1        0.0067
     21 C          -0.6871    1.8512   -1.3373 C.2     1  UNL1        0.1395
     22 O          -0.4287    1.8613   -2.5169 O.2     1  UNL1       -0.2968
     23 O          -6.1363    6.1501    5.5636 O.3     1  UNL1       -0.3605
     24 S          -6.0119    5.6519    6.9964 S.3     1  UNL1        0.0425
     25 O          -7.0939    6.2219    7.7199 O.2     1  UNL1       -0.3360
     26 O          -5.8007    4.2487    6.9216 O.2     1  UNL1       -0.3360
     27 H          -3.4434    1.3250   -1.7038 H       1  UNL1        0.0239
     28 H          -3.9805    2.9175   -1.1177 H       1  UNL1        0.0239
     29 H          -2.9262    2.8046   -2.5473 H       1  UNL1        0.0239
     30 H          -0.5924    3.9289    0.1510 H       1  UNL1        0.0275
     31 H          -1.5495    4.4962   -1.2348 H       1  UNL1        0.0275
     32 H          -2.3708    5.5321    0.8338 H       1  UNL1        0.0271
     33 H          -3.6007    4.4167    0.1857 H       1  UNL1        0.0271
     34 H          -2.1896    5.8772    3.4020 H       1  UNL1        0.0622
     35 H          -3.7134    6.9749    4.9851 H       1  UNL1        0.0655
     36 H          -6.6541    3.9810    4.2007 H       1  UNL1        0.0658
     37 H          -5.2323    1.6861    3.1614 H       1  UNL1        0.0313
     38 H          -6.3262    2.6510    2.1459 H       1  UNL1        0.0313
     39 H          -4.6781    1.2061    0.8614 H       1  UNL1        0.0271
     40 H          -4.6193    2.9403    0.4548 H       1  UNL1        0.0271
     41 H          -0.5314    0.5566    1.7228 H       1  UNL1        0.0272
     42 H          -0.2789    2.3290    1.6077 H       1  UNL1        0.0272
     43 H           0.2998    0.2631   -0.3942 H       1  UNL1        0.0342
     44 H           1.1186    1.7454   -0.1781 H       1  UNL1        0.0342
     45 O          -4.7382    6.2533    7.5730 O.co2   1  UNL1       -0.2589
@<TRIPOS>UNITY_ATOM_ATTR
45 1
charge -1
@<TRIPOS>BOND
     1     1     2    1
     2     1    27    1
     3     1    28    1
     4     1    29    1
     5     2    17    1
     6     2    21    1
     7     2     3    1
     8     3     4    1
     9     3    30    1
    10     3    31    1
    11     4     5    1
    12     4    32    1
    13     4    33    1
    14     5     6    1
    15     5    15    1
    16     5     7    1
    17     7    12   ar
    18     7     8   ar
    19     8     9   ar
    20     8    34    1
    21     9    10   ar
    22     9    35    1
    23    10    11   ar
    24    10    23    1
    25    11    12   ar
    26    11    36    1
    27    12    13    1
    28    13    14    1
    29    13    37    1
    30    13    38    1
    31    14    15    1
    32    14    39    1
    33    14    40    1
    34    15    16    1
    35    15    17    1
    36    17    18    1
    37    17    19    1
    38    19    20    1
    39    19    41    1
    40    19    42    1
    41    20    21    1
    42    20    43    1
    43    20    44    1
    44    21    22    2
    45    23    24    1
    46    24    25    2
    47    24    26    2
    48    24    45    1
