@<TRIPOS>MOLECULE
ZINC00538186
 60 63 0 0 0
SMALL
GASTEIGER

@<TRIPOS>ATOM
      1 C           3.9736    0.6391    5.0878 C.3     1  UNL1       -0.0014
      2 C           3.1940    0.6251    3.7982 C.2     1  UNL1        0.1602
      3 O           3.5691   -0.0604    2.8700 O.2     1  UNL1       -0.2924
      4 C           1.9820    1.4399    3.6652 C.ar    1  UNL1        0.0189
      5 C           1.6121    2.3205    4.6897 C.ar    1  UNL1       -0.0501
      6 C           0.4738    3.0905    4.5555 C.ar    1  UNL1       -0.0455
      7 C          -0.3152    2.9846    3.4126 C.ar    1  UNL1        0.0341
      8 C           0.0457    2.1070    2.3851 C.ar    1  UNL1        0.0485
      9 C           1.1911    1.3392    2.5133 C.ar    1  UNL1       -0.0288
     10 N          -0.7146    1.9857    1.2246 N.pl3   1  UNL1       -0.2981
     11 C          -2.0693    2.2882    1.1233 C.ar    1  UNL1        0.0479
     12 C          -2.8195    1.6775    0.1230 C.ar    1  UNL1       -0.0393
     13 C          -4.1654    1.9592   -0.0107 C.ar    1  UNL1       -0.0599
     14 C          -4.7782    2.8514    0.8489 C.ar    1  UNL1       -0.0606
     15 C          -4.0433    3.4623    1.8480 C.ar    1  UNL1       -0.0462
     16 C          -2.6915    3.1820    1.9902 C.ar    1  UNL1        0.0341
     17 S          -1.7748    3.9620    3.2760 S.3     1  UNL1       -0.0857
     18 C          -0.0384    1.4968    0.0205 C.3     1  UNL1        0.0221
     19 C          -0.1356   -0.0291   -0.0350 C.3     1  UNL1        0.0036
     20 C           0.5706   -0.5397   -1.2926 C.3     1  UNL1       -0.0304
     21 C           1.2271   -2.6203   -0.2435 C.3     1  UNL1       -0.0316
     22 C           0.9894   -4.1321   -0.2446 C.3     1  UNL1       -0.0094
     23 C           1.4459   -4.7147   -1.5850 C.3     1  UNL1       -0.0294
     24 C           0.6847   -4.0227   -2.7191 C.3     1  UNL1       -0.0094
     25 C           0.9313   -2.5140   -2.6463 C.3     1  UNL1       -0.0316
     26 C           1.1547   -6.2164   -1.6156 C.3     1  UNL1       -0.0265
     27 C           2.0107   -6.9234   -0.5629 C.3     1  UNL1        0.0445
     28 O           1.7388   -8.3260   -0.5914 O.3     1  UNL1       -0.3950
     29 H           3.4833    1.1843    5.7678 H       1  UNL1        0.0309
     30 H           4.0883   -0.3811    5.4542 H       1  UNL1        0.0309
     31 H           4.9572    1.0751    4.9131 H       1  UNL1        0.0309
     32 H           2.2194    2.4028    5.5790 H       1  UNL1        0.0625
     33 H           0.1870    3.7699    5.3445 H       1  UNL1        0.0629
     34 H           1.4754    0.6603    1.7229 H       1  UNL1        0.0643
     35 H          -2.3472    0.9794   -0.5523 H       1  UNL1        0.0636
     36 H          -4.7405    1.4809   -0.7897 H       1  UNL1        0.0618
     37 H          -5.8299    3.0713    0.7400 H       1  UNL1        0.0618
     38 H          -4.5224    4.1593    2.5196 H       1  UNL1        0.0629
     39 H           1.0101    1.7934    0.0468 H       1  UNL1        0.0470
     40 H          -0.5147    1.9235   -0.8622 H       1  UNL1        0.0470
     41 H           0.3406   -0.4559    0.8477 H       1  UNL1        0.0332
     42 H          -1.1841   -0.3257   -0.0614 H       1  UNL1        0.0332
     43 H           0.0944   -0.1130   -2.1753 H       1  UNL1        0.0815
     44 H           1.6191   -0.2431   -1.2662 H       1  UNL1        0.0815
     45 H           2.2909   -2.4199   -0.3713 H       1  UNL1        0.0814
     46 H           0.8899   -2.2003    0.7041 H       1  UNL1        0.0814
     47 H          -0.0724   -4.3336   -0.1029 H       1  UNL1        0.0319
     48 H           1.5584   -4.5906    0.5642 H       1  UNL1        0.0319
     49 H           2.5158   -4.5475   -1.7094 H       1  UNL1        0.0305
     50 H          -0.3820   -4.2224   -2.6164 H       1  UNL1        0.0319
     51 H           1.0360   -4.4029   -3.6783 H       1  UNL1        0.0319
     52 H           0.3792   -2.0169   -3.4438 H       1  UNL1        0.0814
     53 H           1.9964   -2.3141   -2.7629 H       1  UNL1        0.0814
     54 H           0.0998   -6.3864   -1.4000 H       1  UNL1        0.0290
     55 H           1.3922   -6.6125   -2.6029 H       1  UNL1        0.0290
     56 H           3.0656   -6.7534   -0.7784 H       1  UNL1        0.0557
     57 H           1.7732   -6.5273    0.4244 H       1  UNL1        0.0557
     58 H           2.2476   -8.8385    0.0517 H       1  UNL1        0.2094
     59 N           0.4482   -2.0113   -1.3428 N.4     1  UNL1        0.2353
     60 H          -0.5399   -2.2676   -1.2325 H       1  UNL1        0.2033
@<TRIPOS>UNITY_ATOM_ATTR
59 1
charge 1
@<TRIPOS>BOND
     1     1     2    1
     2     1    29    1
     3     1    30    1
     4     1    31    1
     5     2     3    2
     6     2     4    1
     7     4     9   ar
     8     4     5   ar
     9     5     6   ar
    10     5    32    1
    11     6     7   ar
    12     6    33    1
    13     7    17    1
    14     7     8   ar
    15     8     9   ar
    16     8    10    1
    17     9    34    1
    18    10    11    1
    19    10    18    1
    20    11    16   ar
    21    11    12   ar
    22    12    13   ar
    23    12    35    1
    24    13    14   ar
    25    13    36    1
    26    14    15   ar
    27    14    37    1
    28    15    16   ar
    29    15    38    1
    30    16    17    1
    31    18    19    1
    32    18    39    1
    33    18    40    1
    34    19    20    1
    35    19    41    1
    36    19    42    1
    37    20    43    1
    38    20    44    1
    39    20    59    1
    40    21    22    1
    41    21    45    1
    42    21    46    1
    43    21    59    1
    44    22    23    1
    45    22    47    1
    46    22    48    1
    47    23    24    1
    48    23    26    1
    49    23    49    1
    50    24    25    1
    51    24    50    1
    52    24    51    1
    53    25    52    1
    54    25    53    1
    55    25    59    1
    56    26    27    1
    57    26    54    1
    58    26    55    1
    59    27    28    1
    60    27    56    1
    61    27    57    1
    62    28    58    1
    63    59    60    1
