@<TRIPOS>MOLECULE
ZINC08101070
 104 107 0 0 0
SMALL
GASTEIGER

@<TRIPOS>ATOM
      1 C          -7.7839  -10.9084   24.9898 C.3     1  UNL1       -0.0653
      2 C          -6.5120  -10.5432   24.2218 C.3     1  UNL1       -0.0559
      3 C          -6.8828   -9.7405   22.9732 C.3     1  UNL1       -0.0533
      4 C          -5.6109   -9.3753   22.2053 C.3     1  UNL1       -0.0531
      5 C          -5.9818   -8.5727   20.9566 C.3     1  UNL1       -0.0531
      6 C          -4.7099   -8.2075   20.1887 C.3     1  UNL1       -0.0531
      7 C          -5.0807   -7.4048   18.9401 C.3     1  UNL1       -0.0531
      8 C          -3.8088   -7.0396   18.1721 C.3     1  UNL1       -0.0531
      9 C          -4.1797   -6.2369   16.9235 C.3     1  UNL1       -0.0531
     10 C          -2.9078   -5.8717   16.1555 C.3     1  UNL1       -0.0531
     11 C          -3.2786   -5.0690   14.9069 C.3     1  UNL1       -0.0531
     12 C          -2.0067   -4.7038   14.1390 C.3     1  UNL1       -0.0530
     13 C          -2.3776   -3.9012   12.8903 C.3     1  UNL1       -0.0526
     14 C          -1.1056   -3.5360   12.1224 C.3     1  UNL1       -0.0430
     15 C          -1.4765   -2.7333   10.8738 C.3     1  UNL1        0.0450
     16 C          -0.2237   -2.3736   10.1173 C.2     1  UNL1        0.3075
     17 O           0.8551   -2.7233   10.5342 O.2     1  UNL1       -0.2508
     18 O          -0.3063   -1.6647    8.9805 O.3     1  UNL1       -0.4568
     19 C           0.9410   -1.3544    8.3050 C.3     1  UNL1        0.1530
     20 C           0.6525   -0.5596    7.0576 C.2     1  UNL1        0.2024
     21 O          -0.4867   -0.2831    6.7678 O.2     1  UNL1       -0.2907
     22 C           1.7812   -0.1115    6.1754 C.3     1  UNL1        0.1351
     23 C           2.3015    1.2736    6.6417 C.3     1  UNL1       -0.0071
     24 H           1.7927    1.5654    7.5622 H       1  UNL1        0.0330
     25 C           1.9501    2.2783    5.5094 C.3     1  UNL1       -0.0436
     26 C           0.7964    1.5580    4.7948 C.3     1  UNL1       -0.0263
     27 H          -0.0700    1.5733    5.4959 H       1  UNL1        0.0311
     28 C           1.3316    0.1162    4.7193 C.3     1  UNL1        0.0096
     29 C           0.2896   -0.8122    4.1685 C.3     1  UNL1       -0.0151
     30 C          -0.4340   -0.2462    2.9405 C.3     1  UNL1        0.0910
     31 H          -1.4916   -0.0900    3.2236 H       1  UNL1        0.0626
     32 C           0.1203    1.0543    2.4102 C.3     1  UNL1        0.1526
     33 C           0.3282    2.1044    3.4919 C.3     1  UNL1        0.0003
     34 H          -0.6689    2.5726    3.6732 H       1  UNL1        0.0336
     35 C           1.2095    3.2087    2.9024 C.3     1  UNL1       -0.0432
     36 C           0.3238    4.0145    1.9484 C.3     1  UNL1       -0.0301
     37 C          -0.6473    3.1408    1.2000 C.2     1  UNL1       -0.0532
     38 C          -1.5162    3.7773    0.3856 C.2     1  UNL1       -0.0148
     39 C          -2.5969    2.9899   -0.2475 C.2     1  UNL1        0.1787
     40 O          -3.1602    3.3743   -1.2646 O.2     1  UNL1       -0.2879
     41 C          -3.0048    1.7337    0.4244 C.2     1  UNL1       -0.0180
     42 C          -2.0920    1.1012    1.1853 C.2     1  UNL1       -0.0674
     43 C          -0.7124    1.6560    1.2932 C.3     1  UNL1        0.0443
     44 C           0.0034    1.1731    0.0222 C.3     1  UNL1       -0.0493
     45 F           1.3428    0.8026    1.7769 F       1  UNL1       -0.2377
     46 O          -0.4180   -1.2430    1.9053 O.3     1  UNL1       -0.3886
     47 C           2.6194    0.0136    3.8860 C.3     1  UNL1       -0.0562
     48 C           3.8116    1.2313    6.8744 C.3     1  UNL1       -0.0594
     49 O           2.8447   -1.0666    6.1989 O.3     1  UNL1       -0.3801
     50 H          -8.4338  -11.5078   24.3523 H       1  UNL1        0.0230
     51 H          -7.5197  -11.4802   25.8793 H       1  UNL1        0.0230
     52 H          -8.3044   -9.9973   25.2849 H       1  UNL1        0.0230
     53 H          -5.9915  -11.4543   23.9268 H       1  UNL1        0.0263
     54 H          -5.8621   -9.9438   24.8594 H       1  UNL1        0.0263
     55 H          -7.4033   -8.8294   23.2683 H       1  UNL1        0.0265
     56 H          -7.5327  -10.3400   22.3357 H       1  UNL1        0.0265
     57 H          -5.0904  -10.2864   21.9102 H       1  UNL1        0.0265
     58 H          -4.9610   -8.7759   22.8428 H       1  UNL1        0.0265
     59 H          -6.5023   -7.6616   21.2517 H       1  UNL1        0.0265
     60 H          -6.6316   -9.1721   20.3191 H       1  UNL1        0.0265
     61 H          -4.1894   -9.1186   19.8936 H       1  UNL1        0.0265
     62 H          -4.0600   -7.6080   20.8262 H       1  UNL1        0.0265
     63 H          -5.6012   -6.4937   19.2351 H       1  UNL1        0.0265
     64 H          -5.7306   -8.0042   18.3025 H       1  UNL1        0.0265
     65 H          -3.2883   -7.9507   17.8770 H       1  UNL1        0.0265
     66 H          -3.1589   -6.4401   18.8096 H       1  UNL1        0.0265
     67 H          -4.7002   -5.3258   17.2186 H       1  UNL1        0.0265
     68 H          -4.8295   -6.8364   16.2860 H       1  UNL1        0.0265
     69 H          -2.3873   -6.7828   15.8604 H       1  UNL1        0.0265
     70 H          -2.2579   -5.2723   16.7931 H       1  UNL1        0.0265
     71 H          -3.7991   -4.1579   15.2020 H       1  UNL1        0.0265
     72 H          -3.9285   -5.6685   14.2694 H       1  UNL1        0.0265
     73 H          -1.4862   -5.6150   13.8439 H       1  UNL1        0.0265
     74 H          -1.3568   -4.1044   14.7765 H       1  UNL1        0.0265
     75 H          -2.8981   -2.9901   13.1854 H       1  UNL1        0.0265
     76 H          -3.0274   -4.5006   12.2528 H       1  UNL1        0.0265
     77 H          -0.5852   -4.4471   11.8273 H       1  UNL1        0.0270
     78 H          -0.4558   -2.9365   12.7599 H       1  UNL1        0.0270
     79 H          -1.9970   -1.8222   11.1688 H       1  UNL1        0.0377
     80 H          -2.1264   -3.3327   10.2362 H       1  UNL1        0.0377
     81 H           1.4069   -2.2042    8.0584 H       1  UNL1        0.0779
     82 H           1.5782   -0.7702    8.9689 H       1  UNL1        0.0779
     83 H           2.7935    2.4529    4.8525 H       1  UNL1        0.0272
     84 H           1.5986    3.2204    5.9371 H       1  UNL1        0.0272
     85 H          -0.4748   -1.0531    4.9201 H       1  UNL1        0.0297
     86 H           0.7646   -1.7694    3.8916 H       1  UNL1        0.0297
     87 H           1.5750    3.8593    3.6975 H       1  UNL1        0.0272
     88 H           2.0483    2.7780    2.3589 H       1  UNL1        0.0272
     89 H          -0.2426    4.7468    2.5261 H       1  UNL1        0.0310
     90 H           0.9519    4.5401    1.2304 H       1  UNL1        0.0310
     91 H          -1.4534    4.8572    0.2467 H       1  UNL1        0.0656
     92 H          -3.9887    1.2964    0.2677 H       1  UNL1        0.0653
     93 H          -2.3798    0.1903    1.7072 H       1  UNL1        0.0583
     94 H           0.0072    0.0833   -0.0008 H       1  UNL1        0.0242
     95 H           1.0298    1.5400    0.0216 H       1  UNL1        0.0242
     96 H          -0.5189    1.5533   -0.8557 H       1  UNL1        0.0242
     97 H          -0.7621   -2.1032    2.1823 H       1  UNL1        0.2099
     98 H           2.5384    0.6588    3.0112 H       1  UNL1        0.0236
     99 H           3.4699    0.3272    4.4913 H       1  UNL1        0.0236
    100 H           2.7629   -1.0180    3.5645 H       1  UNL1        0.0236
    101 H           4.1590    2.2164    7.1855 H       1  UNL1        0.0233
    102 H           4.0390    0.5031    7.6530 H       1  UNL1        0.0233
    103 H           4.3137    0.9440    5.9505 H       1  UNL1        0.0233
    104 H           3.1796   -1.2605    7.0851 H       1  UNL1        0.2108
@<TRIPOS>BOND
     1     1     2    1
     2     1    50    1
     3     1    51    1
     4     1    52    1
     5     2     3    1
     6     2    53    1
     7     2    54    1
     8     3     4    1
     9     3    55    1
    10     3    56    1
    11     4     5    1
    12     4    57    1
    13     4    58    1
    14     5     6    1
    15     5    59    1
    16     5    60    1
    17     6     7    1
    18     6    61    1
    19     6    62    1
    20     7     8    1
    21     7    63    1
    22     7    64    1
    23     8     9    1
    24     8    65    1
    25     8    66    1
    26     9    10    1
    27     9    67    1
    28     9    68    1
    29    10    11    1
    30    10    69    1
    31    10    70    1
    32    11    12    1
    33    11    71    1
    34    11    72    1
    35    12    13    1
    36    12    73    1
    37    12    74    1
    38    13    14    1
    39    13    75    1
    40    13    76    1
    41    14    15    1
    42    14    77    1
    43    14    78    1
    44    15    16    1
    45    15    79    1
    46    15    80    1
    47    16    17    2
    48    16    18    1
    49    18    19    1
    50    19    20    1
    51    19    81    1
    52    19    82    1
    53    20    21    2
    54    20    22    1
    55    22    28    1
    56    22    23    1
    57    22    49    1
    58    23    24    1
    59    23    25    1
    60    23    48    1
    61    25    26    1
    62    25    83    1
    63    25    84    1
    64    26    27    1
    65    26    33    1
    66    26    28    1
    67    28    29    1
    68    28    47    1
    69    29    30    1
    70    29    85    1
    71    29    86    1
    72    30    31    1
    73    30    32    1
    74    30    46    1
    75    32    43    1
    76    32    33    1
    77    32    45    1
    78    33    34    1
    79    33    35    1
    80    35    36    1
    81    35    87    1
    82    35    88    1
    83    36    37    1
    84    36    89    1
    85    36    90    1
    86    37    43    1
    87    37    38    2
    88    38    39    1
    89    38    91    1
    90    39    40    2
    91    39    41    1
    92    41    42    2
    93    41    92    1
    94    42    43    1
    95    42    93    1
    96    43    44    1
    97    44    94    1
    98    44    95    1
    99    44    96    1
   100    46    97    1
   101    47    98    1
   102    47    99    1
   103    47   100    1
   104    48   101    1
   105    48   102    1
   106    48   103    1
   107    49   104    1
