@<TRIPOS>MOLECULE
ZINC13298712
 34 34 0 0 0
SMALL
GASTEIGER

@<TRIPOS>ATOM
      1 C           2.4558    1.3363   -5.0097 C.3     1  UNL1       -0.0653
      2 C           3.1791    1.8264   -3.7537 C.3     1  UNL1       -0.0556
      3 C           2.4765    1.2736   -2.5121 C.3     1  UNL1       -0.0493
      4 C           3.1998    1.7637   -1.2561 C.3     1  UNL1       -0.0214
      5 H           3.2603    2.8519   -1.2730 H       1  UNL1        0.0313
      6 C           4.6116    1.1750   -1.2181 C.3     1  UNL1       -0.0610
      7 C           2.4266    1.3150   -0.0145 C.3     1  UNL1        0.1272
      8 C           2.3609   -0.2010   -0.0215 C.2     1  UNL1        0.2338
      9 O           3.3672   -0.8771   -0.0352 O.2     1  UNL1       -0.2743
     10 N           1.1331   -0.7654   -0.0124 N.am    1  UNL1       -0.2662
     11 C           0.0021   -0.0041    0.0020 C.2     1  UNL1        0.1496
     12 N          -0.0158    1.3110    0.0093 N.am    1  UNL1       -0.1584
     13 C           1.0970    2.0439    0.0026 C.2     1  UNL1        0.2535
     14 O           1.0478    3.2584    0.0092 O.2     1  UNL1       -0.2725
     15 S          -1.5036   -0.8188    0.0120 S.3     1  UNL1       -0.1101
     16 C           3.2194    1.7513    1.2192 C.3     1  UNL1       -0.0331
     17 C           2.5159    1.2486    2.4815 C.3     1  UNL1       -0.0639
     18 H           1.4225    1.6827   -4.9925 H       1  UNL1        0.0230
     19 H           2.9564    1.7301   -5.8943 H       1  UNL1        0.0230
     20 H           2.4733    0.2467   -5.0372 H       1  UNL1        0.0230
     21 H           3.1617    2.9159   -3.7262 H       1  UNL1        0.0263
     22 H           4.2125    1.4799   -3.7710 H       1  UNL1        0.0263
     23 H           2.4940    0.1840   -2.5396 H       1  UNL1        0.0268
     24 H           1.4432    1.6200   -2.4948 H       1  UNL1        0.0268
     25 H           4.5511    0.0869   -1.2013 H       1  UNL1        0.0233
     26 H           5.1624    1.4947   -2.1027 H       1  UNL1        0.0233
     27 H           5.1269    1.5242   -0.3234 H       1  UNL1        0.0233
     28 H           1.0547   -1.7322   -0.0166 H       1  UNL1        0.1565
     29 H          -2.3797    0.2859    0.0263 H       1  UNL1        0.1096
     30 H           4.2245    1.3323    1.1721 H       1  UNL1        0.0277
     31 H           3.2801    2.8393    1.2460 H       1  UNL1        0.0277
     32 H           1.5108    1.6676    2.5286 H       1  UNL1        0.0230
     33 H           2.4552    0.1606    2.4548 H       1  UNL1        0.0230
     34 H           3.0807    1.5594    3.3605 H       1  UNL1        0.0230
@<TRIPOS>BOND
     1     1     2    1
     2     1    18    1
     3     1    19    1
     4     1    20    1
     5     2     3    1
     6     2    21    1
     7     2    22    1
     8     3     4    1
     9     3    23    1
    10     3    24    1
    11     4     5    1
    12     4     6    1
    13     4     7    1
    14     6    25    1
    15     6    26    1
    16     6    27    1
    17     7    13    1
    18     7     8    1
    19     7    16    1
    20     8     9    2
    21     8    10   am
    22    10    11    1
    23    10    28    1
    24    11    12    2
    25    11    15    1
    26    12    13    1
    27    13    14    2
    28    15    29    1
    29    16    17    1
    30    16    30    1
    31    16    31    1
    32    17    32    1
    33    17    33    1
    34    17    34    1
