@<TRIPOS>MOLECULE
ZINC03831249
 52 55 0 0 0
SMALL
GASTEIGER

@<TRIPOS>ATOM
      1 C           3.4821    2.3607   -3.3004 C.3     1  UNL1       -0.0567
      2 C           2.5594    1.4943   -4.1540 C.3     1  UNL1       -0.0004
      3 C           1.3191    2.2766   -4.5222 C.3     1  UNL1       -0.0445
      4 C           0.5596    2.6019   -3.2198 C.3     1  UNL1       -0.0487
      5 C           0.1771    1.3354   -2.4789 C.3     1  UNL1       -0.0292
      6 H          -0.4814    0.7830   -3.1945 H       1  UNL1        0.0310
      7 C           1.3360    0.3849   -2.2144 C.3     1  UNL1       -0.0342
      8 H           0.8529   -0.6108   -1.9988 H       1  UNL1        0.0306
      9 C           2.1327    0.1793   -3.4706 C.3     1  UNL1       -0.0298
     10 H           1.5075   -0.4005   -4.1868 H       1  UNL1        0.0310
     11 C           3.4831   -0.5464   -3.3622 C.3     1  UNL1       -0.0468
     12 C           4.0390   -0.3438   -4.8049 C.3     1  UNL1       -0.0235
     13 C           3.3942    0.9643   -5.3324 C.3     1  UNL1        0.0689
     14 C           4.4740    1.9802   -5.7021 C.3     1  UNL1       -0.0356
     15 O           2.5508    0.6932   -6.4493 O.3     1  UNL1       -0.3883
     16 C           2.1791    0.6832   -0.9926 C.3     1  UNL1       -0.0494
     17 C           1.4296    1.5848   -0.0031 C.3     1  UNL1       -0.0488
     18 C          -0.0128    1.0962    0.0081 C.3     1  UNL1       -0.0222
     19 H           0.0021   -0.0041    0.0020 H       1  UNL1        0.0312
     20 C          -0.7059    1.5709   -1.2722 C.3     1  UNL1        0.0085
     21 C          -2.0221    0.7873   -1.3695 C.3     1  UNL1        0.0983
     22 O          -2.8075    1.0386   -0.1808 O.3     1  UNL1       -0.4641
     23 C          -2.2657    1.2369    1.0201 C.2     1  UNL1        0.3074
     24 O          -2.9865    1.1857    2.0047 O.2     1  UNL1       -0.2508
     25 C          -0.8010    1.5574    1.2230 C.3     1  UNL1        0.0484
     26 C          -1.0512    3.0549   -1.1481 C.3     1  UNL1       -0.0559
     27 H           2.9654    2.6493   -2.3851 H       1  UNL1        0.0236
     28 H           4.3799    1.7963   -3.0483 H       1  UNL1        0.0236
     29 H           3.7597    3.2549   -3.8584 H       1  UNL1        0.0236
     30 H           0.6788    1.6831   -5.1758 H       1  UNL1        0.0272
     31 H           1.5956    3.2052   -5.0230 H       1  UNL1        0.0272
     32 H          -0.3514    3.1331   -3.5311 H       1  UNL1        0.0268
     33 H           1.1541    3.2570   -2.5967 H       1  UNL1        0.0268
     34 H           3.3259   -1.6092   -3.1673 H       1  UNL1        0.0269
     35 H           4.1315   -0.1070   -2.6183 H       1  UNL1        0.0269
     36 H           3.7505   -1.1843   -5.4338 H       1  UNL1        0.0293
     37 H           5.1222   -0.2433   -4.7742 H       1  UNL1        0.0293
     38 H           5.1263    2.1454   -4.8446 H       1  UNL1        0.0257
     39 H           5.0614    1.5984   -6.5372 H       1  UNL1        0.0257
     40 H           4.0046    2.9214   -5.9883 H       1  UNL1        0.0257
     41 H           3.0206    0.3558   -7.2243 H       1  UNL1        0.2102
     42 H           3.1408    1.1082   -1.2249 H       1  UNL1        0.0268
     43 H           2.3735   -0.2734   -0.4720 H       1  UNL1        0.0268
     44 H           1.4899    2.6183   -0.3256 H       1  UNL1        0.0268
     45 H           1.8639    1.4764    0.9904 H       1  UNL1        0.0268
     46 H          -2.5641    1.1119   -2.2616 H       1  UNL1        0.0703
     47 H          -1.7956   -0.2781   -1.4604 H       1  UNL1        0.0703
     48 H          -0.4409    1.0172    2.1120 H       1  UNL1        0.0380
     49 H          -0.6630    2.6220    1.4070 H       1  UNL1        0.0380
     50 H          -0.1373    3.6293   -0.9966 H       1  UNL1        0.0236
     51 H          -1.5444    3.3908   -2.0603 H       1  UNL1        0.0236
     52 H          -1.7183    3.2030   -0.2988 H       1  UNL1        0.0236
@<TRIPOS>BOND
     1     1     2    1
     2     1    27    1
     3     1    28    1
     4     1    29    1
     5     2     9    1
     6     2    13    1
     7     2     3    1
     8     3     4    1
     9     3    30    1
    10     3    31    1
    11     4     5    1
    12     4    32    1
    13     4    33    1
    14     5     6    1
    15     5    20    1
    16     5     7    1
    17     7     8    1
    18     7     9    1
    19     7    16    1
    20     9    10    1
    21     9    11    1
    22    11    12    1
    23    11    34    1
    24    11    35    1
    25    12    13    1
    26    12    36    1
    27    12    37    1
    28    13    14    1
    29    13    15    1
    30    14    38    1
    31    14    39    1
    32    14    40    1
    33    15    41    1
    34    16    17    1
    35    16    42    1
    36    16    43    1
    37    17    18    1
    38    17    44    1
    39    17    45    1
    40    18    19    1
    41    18    25    1
    42    18    20    1
    43    20    21    1
    44    20    26    1
    45    21    22    1
    46    21    46    1
    47    21    47    1
    48    22    23    1
    49    23    24    2
    50    23    25    1
    51    25    48    1
    52    25    49    1
    53    26    50    1
    54    26    51    1
    55    26    52    1
