@<TRIPOS>MOLECULE
ZINC00075008
 31 32 0 0 0
SMALL
GASTEIGER

@<TRIPOS>ATOM
      1 C          -2.1854    1.6458    1.2468 C.3     1  UNL1       -0.0645
      2 C          -0.7042    2.0281    1.2765 C.3     1  UNL1       -0.0426
      3 C          -0.0185    1.5108    0.0103 C.3     1  UNL1        0.0624
      4 H          -0.5241    1.8889   -0.8782 H       1  UNL1        0.0417
      5 C           1.4706    1.9213   -0.0017 C.3     1  UNL1        0.0116
      6 H           1.7063    2.4902   -0.9011 H       1  UNL1        0.0345
      7 C           2.2061    0.5641   -0.0062 C.3     1  UNL1        0.0964
      8 O           1.2107   -0.4084    0.4338 O.3     1  UNL1       -0.4641
      9 C           0.0021   -0.0041    0.0020 C.2     1  UNL1        0.3106
     10 O          -0.9085   -0.7239   -0.3335 O.2     1  UNL1       -0.2505
     11 C           1.8211    2.7222    1.2540 C.3     1  UNL1       -0.0041
     12 C           3.2429    3.2122    1.1568 C.ar    1  UNL1        0.0381
     13 C           3.6660    4.3302    0.5366 C.ar    1  UNL1        0.0486
     14 N           4.9973    4.4064    0.6815 N.ar    1  UNL1       -0.2438
     15 C           5.4161    3.3738    1.3606 C.ar    1  UNL1        0.0959
     16 N           4.3531    2.6033    1.6767 N.ar    1  UNL1       -0.3370
     17 C           4.3826    1.3499    2.4346 C.3     1  UNL1        0.0130
     18 H          -2.6577    2.0899    0.3706 H       1  UNL1        0.0230
     19 H          -2.2797    0.5609    1.1998 H       1  UNL1        0.0230
     20 H          -2.6739    2.0143    2.1488 H       1  UNL1        0.0230
     21 H          -0.2318    1.5840    2.1528 H       1  UNL1        0.0271
     22 H          -0.6098    3.1130    1.3235 H       1  UNL1        0.0271
     23 H           3.0462    0.5865    0.6880 H       1  UNL1        0.0700
     24 H           2.5527    0.3229   -1.0111 H       1  UNL1        0.0700
     25 H           1.1479    3.5751    1.3406 H       1  UNL1        0.0332
     26 H           1.7155    2.0854    2.1323 H       1  UNL1        0.0332
     27 H           3.0424    5.0420    0.0162 H       1  UNL1        0.0848
     28 H           6.4429    3.1690    1.6256 H       1  UNL1        0.1029
     29 H           4.5110    0.5131    1.7481 H       1  UNL1        0.0456
     30 H           5.2129    1.3716    3.1404 H       1  UNL1        0.0456
     31 H           3.4457    1.2325    2.9793 H       1  UNL1        0.0456
@<TRIPOS>BOND
     1     1     2    1
     2     1    18    1
     3     1    19    1
     4     1    20    1
     5     2     3    1
     6     2    21    1
     7     2    22    1
     8     3     4    1
     9     3     9    1
    10     3     5    1
    11     5     6    1
    12     5     7    1
    13     5    11    1
    14     7     8    1
    15     7    23    1
    16     7    24    1
    17     8     9    1
    18     9    10    2
    19    11    12    1
    20    11    25    1
    21    11    26    1
    22    12    16   ar
    23    12    13   ar
    24    13    14   ar
    25    13    27    1
    26    14    15   ar
    27    15    16   ar
    28    15    28    1
    29    16    17    1
    30    17    29    1
    31    17    30    1
    32    17    31    1
