@<TRIPOS>MOLECULE
ZINC00607750
 37 38 0 0 0
SMALL
GASTEIGER

@<TRIPOS>ATOM
      1 C           3.7425   -5.4115    1.7580 C.3     1  UNL1       -0.0626
      2 C           2.4174   -5.5068    0.9991 C.3     1  UNL1       -0.0438
      3 C           2.1178   -6.9725    0.6781 C.3     1  UNL1       -0.0626
      4 C           1.2923   -4.9338    1.8633 C.3     1  UNL1       -0.0174
      5 C          -0.0043   -4.8944    1.0521 C.3     1  UNL1        0.0915
      6 H          -0.2213   -5.8885    0.6613 H       1  UNL1        0.0682
      7 N           0.1391   -3.9530   -0.0556 N.pl3   1  UNL1       -0.3258
      8 C           0.2172   -2.5738    0.1182 C.ar    1  UNL1        0.0565
      9 C           0.7935   -1.8010   -0.8887 C.ar    1  UNL1       -0.0186
     10 C           0.8472   -0.4275   -0.7650 C.ar    1  UNL1        0.0691
     11 C           0.3401    0.1914    0.3647 C.ar    1  UNL1        0.1252
     12 C          -0.2257   -0.5700    1.3710 C.ar    1  UNL1       -0.0057
     13 C          -0.2799   -1.9430    1.2507 C.ar    1  UNL1        0.1280
     14 S          -0.9718   -2.9141    2.5555 S.O2    1  UNL1        0.0618
     15 O           0.0067   -2.9861    3.5833 O.2     1  UNL1       -0.1529
     16 O          -2.2892   -2.4307    2.7790 O.2     1  UNL1       -0.1529
     17 N          -1.1175   -4.4468    1.9132 N.3     1  UNL1       -0.1699
     18 S           0.4090    1.9454    0.5169 S.O2    1  UNL1        0.0574
     19 O          -0.0866    2.4787   -0.7034 O.2     1  UNL1       -0.1532
     20 O          -0.1639    2.2666    1.7770 O.2     1  UNL1       -0.1532
     21 N           2.0081    2.3670    0.6028 N.3     1  UNL1       -0.2035
     22 CL          1.5593    0.5273   -2.0280 Cl      1  UNL1       -0.0815
     23 H           3.7024   -6.0497    2.6408 H       1  UNL1        0.0232
     24 H           4.5563   -5.7377    1.1105 H       1  UNL1        0.0232
     25 H           3.9127   -4.3791    2.0635 H       1  UNL1        0.0232
     26 H           2.4882   -4.9389    0.0715 H       1  UNL1        0.0296
     27 H           1.1738   -7.0404    0.1375 H       1  UNL1        0.0232
     28 H           2.9193   -7.3807    0.0625 H       1  UNL1        0.0232
     29 H           2.0470   -7.5405    1.6057 H       1  UNL1        0.0232
     30 H           1.5546   -3.9238    2.1784 H       1  UNL1        0.0299
     31 H           1.1523   -5.5636    2.7419 H       1  UNL1        0.0299
     32 H           0.1825   -4.3066   -0.9578 H       1  UNL1        0.1477
     33 H           1.1950   -2.2783   -1.7704 H       1  UNL1        0.0652
     34 H          -0.6258   -0.0892    2.2514 H       1  UNL1        0.0658
     35 H          -1.8867   -5.0096    2.0939 H       1  UNL1        0.1501
     36 H           2.6932    1.6813    0.5654 H       1  UNL1        0.1442
     37 H           2.2598    3.2997    0.6904 H       1  UNL1        0.1442
@<TRIPOS>BOND
     1     1     2    1
     2     1    23    1
     3     1    24    1
     4     1    25    1
     5     2     3    1
     6     2     4    1
     7     2    26    1
     8     3    27    1
     9     3    28    1
    10     3    29    1
    11     4     5    1
    12     4    30    1
    13     4    31    1
    14     5     6    1
    15     5    17    1
    16     5     7    1
    17     7     8    1
    18     7    32    1
    19     8    13   ar
    20     8     9   ar
    21     9    10   ar
    22     9    33    1
    23    10    11   ar
    24    10    22    1
    25    11    12   ar
    26    11    18    1
    27    12    13   ar
    28    12    34    1
    29    13    14    1
    30    14    15    2
    31    14    16    2
    32    14    17    1
    33    17    35    1
    34    18    19    2
    35    18    20    2
    36    18    21    1
    37    21    36    1
    38    21    37    1
