@<TRIPOS>MOLECULE
ZINC01087483
 43 44 0 0 0
SMALL
GASTEIGER

@<TRIPOS>ATOM
      1 C           1.6463    5.8844    1.4330 C.3     1  UNL1       -0.0552
      2 C           0.2394    5.2967    1.5601 C.3     1  UNL1        0.0421
      3 C           0.2934    3.8091    1.3255 C.2     1  UNL1        0.3077
      4 O           1.3488    3.2738    1.0817 O.2     1  UNL1       -0.2508
      5 O          -0.8310    3.0786    1.3875 O.3     1  UNL1       -0.4526
      6 C          -0.7044    1.6520    1.1488 C.3     1  UNL1        0.1505
      7 C          -0.1680    1.4155   -0.2658 C.3     1  UNL1        0.0322
      8 C          -1.1656    1.9708   -1.2847 C.3     1  UNL1       -0.0281
      9 C          -3.0203    1.5546    0.2183 C.3     1  UNL1       -0.0255
     10 C          -2.0780    0.9869    1.2822 C.3     1  UNL1        0.0406
     11 H          -1.9763   -0.0892    1.1413 H       1  UNL1        0.0392
     12 C          -2.6490    1.2691    2.6733 C.3     1  UNL1       -0.0536
     13 C          -3.4050    1.7101   -2.1667 C.3     1  UNL1       -0.0431
     14 C           0.2458    1.0543    2.1542 C.ar    1  UNL1       -0.0036
     15 C           0.8201   -0.1800    1.9137 C.ar    1  UNL1       -0.0548
     16 C           1.6947   -0.7265    2.8341 C.ar    1  UNL1       -0.0614
     17 C           1.9888   -0.0425    3.9989 C.ar    1  UNL1       -0.0617
     18 C           1.4104    1.1894    4.2418 C.ar    1  UNL1       -0.0614
     19 C           0.5388    1.7376    3.3196 C.ar    1  UNL1       -0.0548
     20 H           2.0331    5.6881    0.4330 H       1  UNL1        0.0235
     21 H           1.6073    6.9604    1.6026 H       1  UNL1        0.0235
     22 H           2.3009    5.4235    2.1727 H       1  UNL1        0.0235
     23 H          -0.4151    5.7577    0.8204 H       1  UNL1        0.0375
     24 H          -0.1473    5.4931    2.5601 H       1  UNL1        0.0375
     25 H          -0.0362    0.3462   -0.4309 H       1  UNL1        0.0359
     26 H           0.7901    1.9223   -0.3811 H       1  UNL1        0.0359
     27 H          -1.2864    3.0427   -1.1278 H       1  UNL1        0.0816
     28 H          -0.7927    1.7913   -2.2931 H       1  UNL1        0.0816
     29 H          -3.1324    2.6284    0.3682 H       1  UNL1        0.0818
     30 H          -3.9945    1.0727    0.3016 H       1  UNL1        0.0818
     31 H          -3.6277    0.7983    2.7667 H       1  UNL1        0.0236
     32 H          -1.9775    0.8645    3.4306 H       1  UNL1        0.0236
     33 H          -2.7486    2.3454    2.8137 H       1  UNL1        0.0236
     34 H          -2.9686    1.5083   -3.1449 H       1  UNL1        0.0777
     35 H          -4.3330    1.1485   -2.0600 H       1  UNL1        0.0777
     36 H          -3.6128    2.7762   -2.0745 H       1  UNL1        0.0777
     37 H           0.5877   -0.7159    1.0053 H       1  UNL1        0.0622
     38 H           2.1463   -1.6890    2.6445 H       1  UNL1        0.0618
     39 H           2.6700   -0.4707    4.7192 H       1  UNL1        0.0618
     40 H           1.6399    1.7236    5.1519 H       1  UNL1        0.0618
     41 H           0.0870    2.7000    3.5093 H       1  UNL1        0.0622
     42 N          -2.4585    1.2729   -1.1197 N.4     1  UNL1        0.2335
     43 H          -2.3051    0.2617   -1.2103 H       1  UNL1        0.2031
@<TRIPOS>UNITY_ATOM_ATTR
42 1
charge 1
@<TRIPOS>BOND
     1     1     2    1
     2     1    20    1
     3     1    21    1
     4     1    22    1
     5     2     3    1
     6     2    23    1
     7     2    24    1
     8     3     4    2
     9     3     5    1
    10     5     6    1
    11     6    10    1
    12     6     7    1
    13     6    14    1
    14     7     8    1
    15     7    25    1
    16     7    26    1
    17     8    27    1
    18     8    28    1
    19     8    42    1
    20     9    10    1
    21     9    29    1
    22     9    30    1
    23     9    42    1
    24    10    11    1
    25    10    12    1
    26    12    31    1
    27    12    32    1
    28    12    33    1
    29    13    34    1
    30    13    35    1
    31    13    36    1
    32    13    42    1
    33    14    19   ar
    34    14    15   ar
    35    15    16   ar
    36    15    37    1
    37    16    17   ar
    38    16    38    1
    39    17    18   ar
    40    17    39    1
    41    18    19   ar
    42    18    40    1
    43    19    41    1
    44    42    43    1
