@<TRIPOS>MOLECULE
ZINC11616699
 76 79 0 0 0
SMALL
GASTEIGER

@<TRIPOS>ATOM
      1 C           6.5758    6.1456   -1.6902 C.3     1  UNL1       -0.0648
      2 C           6.3527    4.8383   -0.9272 C.3     1  UNL1       -0.0458
      3 C           4.8587    4.6573   -0.6514 C.3     1  UNL1        0.0447
      4 C           4.6389    3.3697    0.1001 C.2     1  UNL1        0.3080
      5 O           5.5806    2.6687    0.3859 O.2     1  UNL1       -0.2508
      6 O           3.3970    3.0016    0.4521 O.3     1  UNL1       -0.4494
      7 C           3.2705    1.8130    1.2765 C.3     1  UNL1        0.1821
      8 C           3.9467    0.6148    0.5843 C.3     1  UNL1        0.0042
      9 H           4.3448    0.9188   -0.3837 H       1  UNL1        0.0341
     10 C           2.8469   -0.4457    0.3838 C.3     1  UNL1       -0.0426
     11 C           1.8076   -0.1041    1.4675 C.3     1  UNL1       -0.0253
     12 H           2.1778   -0.4375    2.4370 H       1  UNL1        0.0311
     13 C           1.7741    1.4346    1.4400 C.3     1  UNL1        0.0208
     14 C           1.0435    1.9537    0.2146 C.3     1  UNL1       -0.0141
     15 C          -0.3440    1.3280    0.0938 C.3     1  UNL1        0.0910
     16 H          -0.8552    1.7346   -0.7788 H       1  UNL1        0.0626
     17 C          -0.1796   -0.1868   -0.0641 C.3     1  UNL1        0.1526
     18 C           0.4636   -0.7378    1.2031 C.3     1  UNL1        0.0003
     19 H          -0.1890   -0.5290    2.0508 H       1  UNL1        0.0336
     20 C           0.6062   -2.2579    1.0470 C.3     1  UNL1       -0.0432
     21 C          -0.7894   -2.8716    1.1733 C.3     1  UNL1       -0.0301
     22 C          -1.7599   -2.1562    0.2803 C.2     1  UNL1       -0.0532
     23 C          -2.9683   -2.7234    0.0591 C.2     1  UNL1       -0.0148
     24 C          -3.8875   -1.9195   -0.7924 C.2     1  UNL1        0.1787
     25 O          -4.5839   -2.4177   -1.6571 O.2     1  UNL1       -0.2879
     26 C          -3.8883   -0.4584   -0.5043 C.2     1  UNL1       -0.0180
     27 C          -2.6694    0.0801   -0.2807 C.2     1  UNL1       -0.0674
     28 C          -1.4931   -0.8483   -0.3649 C.3     1  UNL1        0.0443
     29 C          -1.4259   -1.1808   -1.8569 C.3     1  UNL1       -0.0493
     30 F           0.6880   -0.4242   -1.1356 F       1  UNL1       -0.2377
     31 O          -1.1030    1.6095    1.2714 O.3     1  UNL1       -0.3886
     32 C           1.1802    2.0099    2.7273 C.3     1  UNL1       -0.0551
     33 C           5.0717    0.0674    1.4649 C.3     1  UNL1       -0.0583
     34 C           3.8949    2.0504    2.6273 C.2     1  UNL1        0.2144
     35 O           3.8191    1.2034    3.4848 O.2     1  UNL1       -0.2895
     36 C           4.6140    3.3446    2.9082 C.3     1  UNL1        0.1542
     37 O           5.0088    3.3858    4.3048 O.3     1  UNL1       -0.4568
     38 C           5.6649    4.4805    4.7207 C.2     1  UNL1        0.3072
     39 O           5.9013    5.3748    3.9433 O.2     1  UNL1       -0.2509
     40 C           6.1064    4.5942    6.1570 C.3     1  UNL1        0.0421
     41 C           6.8259    5.9284    6.3653 C.3     1  UNL1       -0.0552
     42 H           6.0334    6.1119   -2.6351 H       1  UNL1        0.0230
     43 H           6.2128    6.9816   -1.0925 H       1  UNL1        0.0230
     44 H           7.6402    6.2745   -1.8867 H       1  UNL1        0.0230
     45 H           6.8951    4.8720    0.0177 H       1  UNL1        0.0268
     46 H           6.7157    4.0022   -1.5249 H       1  UNL1        0.0268
     47 H           4.3163    4.6237   -1.5963 H       1  UNL1        0.0377
     48 H           4.4957    5.4934   -0.0537 H       1  UNL1        0.0377
     49 H           3.2556   -1.4432    0.5448 H       1  UNL1        0.0272
     50 H           2.4057   -0.3663   -0.6098 H       1  UNL1        0.0272
     51 H           1.6270    1.7052   -0.6719 H       1  UNL1        0.0298
     52 H           0.9432    3.0368    0.2845 H       1  UNL1        0.0298
     53 H           1.0250   -2.4911    0.0681 H       1  UNL1        0.0272
     54 H           1.2555   -2.6504    1.8295 H       1  UNL1        0.0272
     55 H          -0.7475   -3.9234    0.8905 H       1  UNL1        0.0310
     56 H          -1.1270   -2.7895    2.2064 H       1  UNL1        0.0310
     57 H          -3.2441   -3.6842    0.4679 H       1  UNL1        0.0656
     58 H          -4.7955    0.1270   -0.4758 H       1  UNL1        0.0653
     59 H          -2.5481    1.1265   -0.0427 H       1  UNL1        0.0583
     60 H          -0.5841   -1.8477   -2.0429 H       1  UNL1        0.0242
     61 H          -2.3510   -1.6695   -2.1623 H       1  UNL1        0.0242
     62 H          -1.2946   -0.2619   -2.4283 H       1  UNL1        0.0242
     63 H          -1.2448    2.5525    1.4318 H       1  UNL1        0.2099
     64 H           1.8437    1.7900    3.5636 H       1  UNL1        0.0237
     65 H           1.0694    3.0895    2.6255 H       1  UNL1        0.0237
     66 H           0.2042    1.5602    2.9098 H       1  UNL1        0.0237
     67 H           4.6600   -0.2566    2.4208 H       1  UNL1        0.0234
     68 H           5.5436   -0.7796    0.9667 H       1  UNL1        0.0234
     69 H           5.8131    0.8482    1.6345 H       1  UNL1        0.0234
     70 H           5.4275    3.4062    2.3299 H       1  UNL1        0.0780
     71 H           3.9510    4.1827    2.6932 H       1  UNL1        0.0780
     72 H           5.2350    4.5455    6.8100 H       1  UNL1        0.0375
     73 H           6.7847    3.7747    6.3946 H       1  UNL1        0.0375
     74 H           7.6973    5.9771    5.7124 H       1  UNL1        0.0235
     75 H           6.1476    6.7479    6.1278 H       1  UNL1        0.0235
     76 H           7.1453    6.0106    7.4042 H       1  UNL1        0.0235
@<TRIPOS>BOND
     1     1     2    1
     2     1    42    1
     3     1    43    1
     4     1    44    1
     5     2     3    1
     6     2    45    1
     7     2    46    1
     8     3     4    1
     9     3    47    1
    10     3    48    1
    11     4     5    2
    12     4     6    1
    13     6     7    1
    14     7    13    1
    15     7     8    1
    16     7    34    1
    17     8     9    1
    18     8    10    1
    19     8    33    1
    20    10    11    1
    21    10    49    1
    22    10    50    1
    23    11    12    1
    24    11    18    1
    25    11    13    1
    26    13    14    1
    27    13    32    1
    28    14    15    1
    29    14    51    1
    30    14    52    1
    31    15    16    1
    32    15    17    1
    33    15    31    1
    34    17    28    1
    35    17    18    1
    36    17    30    1
    37    18    19    1
    38    18    20    1
    39    20    21    1
    40    20    53    1
    41    20    54    1
    42    21    22    1
    43    21    55    1
    44    21    56    1
    45    22    28    1
    46    22    23    2
    47    23    24    1
    48    23    57    1
    49    24    25    2
    50    24    26    1
    51    26    27    2
    52    26    58    1
    53    27    28    1
    54    27    59    1
    55    28    29    1
    56    29    60    1
    57    29    61    1
    58    29    62    1
    59    31    63    1
    60    32    64    1
    61    32    65    1
    62    32    66    1
    63    33    67    1
    64    33    68    1
    65    33    69    1
    66    34    35    2
    67    34    36    1
    68    36    37    1
    69    36    70    1
    70    36    71    1
    71    37    38    1
    72    38    39    2
    73    38    40    1
    74    40    41    1
    75    40    72    1
    76    40    73    1
    77    41    74    1
    78    41    75    1
    79    41    76    1
