@<TRIPOS>MOLECULE
ZINC11592691
 65 67 0 0 0
SMALL
GASTEIGER

@<TRIPOS>ATOM
      1 C           7.2073    4.7976    8.2340 C.3     1  UNL1       -0.0645
      2 C           6.0998    4.6482    7.1889 C.3     1  UNL1       -0.0432
      3 C           6.3136    3.3545    6.4006 C.3     1  UNL1        0.0534
      4 H           6.3753    2.5139    7.0917 H       1  UNL1        0.0410
      5 C           7.6142    3.4537    5.6008 C.3     1  UNL1       -0.0523
      6 C           5.1580    3.1449    5.4563 C.2     1  UNL1        0.3102
      7 O           4.2560    3.9478    5.4178 O.2     1  UNL1       -0.2505
      8 O           5.1308    2.0661    4.6580 O.3     1  UNL1       -0.4605
      9 C           3.9870    1.9288    3.7742 C.3     1  UNL1        0.1106
     10 H           3.6331    2.9214    3.4957 H       1  UNL1        0.0740
     11 C           2.8714    1.1950    4.5154 C.3     1  UNL1       -0.0090
     12 C           3.3783   -0.2048    4.8890 C.3     1  UNL1       -0.0218
     13 H           4.2751   -0.1212    5.5029 H       1  UNL1        0.0342
     14 C           3.6999   -0.9331    3.6097 C.2     1  UNL1       -0.0775
     15 C           4.1419   -0.2829    2.5492 C.2     1  UNL1       -0.0444
     16 C           4.4152    1.1919    2.5271 C.3     1  UNL1        0.0243
     17 H           5.4943    1.3095    2.4285 H       1  UNL1        0.0388
     18 C           3.7723    1.7773    1.2677 C.3     1  UNL1       -0.0247
     19 H           3.9250    2.8564    1.2472 H       1  UNL1        0.0313
     20 C           4.4265    1.1400    0.0409 C.3     1  UNL1       -0.0219
     21 H           5.4467    1.5123   -0.0518 H       1  UNL1        0.0343
     22 C           4.4590   -0.3544    0.1450 C.2     1  UNL1       -0.0806
     23 C           4.3384   -1.0209    1.2800 C.2     1  UNL1       -0.0621
     24 C           3.6370    1.5363   -1.2083 C.3     1  UNL1       -0.0587
     25 C           2.2732    1.4712    1.2671 C.3     1  UNL1       -0.0457
     26 C           2.0593   -0.0297    1.0614 C.3     1  UNL1       -0.0153
     27 C           0.5633   -0.3167    0.9178 C.3     1  UNL1        0.1054
     28 H           0.0312    0.0834    1.7809 H       1  UNL1        0.0734
     29 C           0.3382   -1.8289    0.8339 C.3     1  UNL1        0.0109
     30 C          -1.1549   -2.1099    0.6386 C.3     1  UNL1        0.0686
     31 H          -1.3184   -3.1857    0.5746 H       1  UNL1        0.0600
     32 C          -1.6221   -1.4415   -0.6602 C.3     1  UNL1        0.0710
     33 C          -1.2151    0.0150   -0.6205 C.2     1  UNL1        0.3098
     34 O          -2.0102    0.8895   -0.8716 O.2     1  UNL1       -0.2507
     35 O           0.0622    0.3105   -0.2961 O.3     1  UNL1       -0.4612
     36 O          -1.8902   -1.5772    1.7420 O.3     1  UNL1       -0.3911
     37 C           2.2929   -0.9613    5.6575 C.3     1  UNL1       -0.0588
     38 H           8.1757    4.8321    7.7348 H       1  UNL1        0.0230
     39 H           7.0550    5.7192    8.7956 H       1  UNL1        0.0230
     40 H           7.1802    3.9478    8.9161 H       1  UNL1        0.0230
     41 H           6.1269    5.4980    6.5069 H       1  UNL1        0.0270
     42 H           5.1315    4.6137    7.6881 H       1  UNL1        0.0270
     43 H           7.5526    4.2943    4.9097 H       1  UNL1        0.0238
     44 H           8.4501    3.6053    6.2838 H       1  UNL1        0.0238
     45 H           7.7665    2.5320    5.0392 H       1  UNL1        0.0238
     46 H           2.6086    1.7438    5.4198 H       1  UNL1        0.0307
     47 H           1.9969    1.1088    3.8705 H       1  UNL1        0.0307
     48 H           3.5665   -2.0037    3.5594 H       1  UNL1        0.0578
     49 H           4.5891   -0.9224   -0.7643 H       1  UNL1        0.0575
     50 H           4.3834   -2.0999    1.2820 H       1  UNL1        0.0617
     51 H           3.5511    2.6219   -1.2546 H       1  UNL1        0.0235
     52 H           4.1560    1.1747   -2.0960 H       1  UNL1        0.0235
     53 H           2.6415    1.0946   -1.1643 H       1  UNL1        0.0235
     54 H           1.7904    2.0211    0.4592 H       1  UNL1        0.0269
     55 H           1.8404    1.7725    2.2211 H       1  UNL1        0.0269
     56 H           2.4528   -0.5739    1.9200 H       1  UNL1        0.0301
     57 H           2.5791   -0.3504    0.1586 H       1  UNL1        0.0301
     58 H           0.8978   -2.2337   -0.0093 H       1  UNL1        0.0326
     59 H           0.6791   -2.2991    1.7563 H       1  UNL1        0.0326
     60 H          -1.1532   -1.9306   -1.5140 H       1  UNL1        0.0403
     61 H          -2.7062   -1.5182   -0.7431 H       1  UNL1        0.0403
     62 H          -2.8449   -1.7196    1.6839 H       1  UNL1        0.2098
     63 H           1.4041   -1.0546    5.0335 H       1  UNL1        0.0235
     64 H           2.6585   -1.9541    5.9199 H       1  UNL1        0.0235
     65 H           2.0429   -0.4141    6.5664 H       1  UNL1        0.0235
@<TRIPOS>BOND
     1     1     2    1
     2     1    38    1
     3     1    39    1
     4     1    40    1
     5     2     3    1
     6     2    41    1
     7     2    42    1
     8     3     4    1
     9     3     5    1
    10     3     6    1
    11     5    43    1
    12     5    44    1
    13     5    45    1
    14     6     7    2
    15     6     8    1
    16     8     9    1
    17     9    10    1
    18     9    16    1
    19     9    11    1
    20    11    12    1
    21    11    46    1
    22    11    47    1
    23    12    13    1
    24    12    14    1
    25    12    37    1
    26    14    15    2
    27    14    48    1
    28    15    23    1
    29    15    16    1
    30    16    17    1
    31    16    18    1
    32    18    19    1
    33    18    20    1
    34    18    25    1
    35    20    21    1
    36    20    22    1
    37    20    24    1
    38    22    23    2
    39    22    49    1
    40    23    50    1
    41    24    51    1
    42    24    52    1
    43    24    53    1
    44    25    26    1
    45    25    54    1
    46    25    55    1
    47    26    27    1
    48    26    56    1
    49    26    57    1
    50    27    28    1
    51    27    35    1
    52    27    29    1
    53    29    30    1
    54    29    58    1
    55    29    59    1
    56    30    31    1
    57    30    32    1
    58    30    36    1
    59    32    33    1
    60    32    60    1
    61    32    61    1
    62    33    34    2
    63    33    35    1
    64    36    62    1
    65    37    63    1
    66    37    64    1
    67    37    65    1
