@<TRIPOS>MOLECULE
ZINC03830207
 45 47 0 0 0
SMALL
GASTEIGER

@<TRIPOS>ATOM
      1 C          -0.7100    5.3058    1.0190 C.3     1  UNL1       -0.0486
      2 C          -0.5693    5.2729   -0.5042 C.3     1  UNL1        0.0368
      3 CA          0.8213    4.7205   -0.9413 C.3     1  UNL1        0.0810
      4 HA          1.0011    4.9774   -1.9852 H       1  UNL1        0.0576
      5 N           0.8494    3.2643   -0.7868 N.am    1  UNL1       -0.2677
      6 C          -0.4154    2.5726   -1.1162 C.3     1  UNL1        0.1445
      7 H          -0.4065    1.8491   -1.9314 H       1  UNL1        0.0690
      8 S          -1.6245    3.9547   -1.2583 S.3     1  UNL1       -0.1228
      9 CA         -0.2967    2.0218    0.3058 C.3     1  UNL1        0.2574
     10 HA         -0.1992    0.9367    0.3403 H       1  UNL1        0.1195
     11 C           1.0202    2.7431    0.4509 C.2     1  UNL1        0.2884
     12 O           1.8709    2.8228    1.3117 O.2     1  UNL1       -0.2681
     13 C          -2.1894    1.7820    1.8490 C.2     1  UNL1        0.2295
     14 N          -3.1185    2.3599    2.6737 N.pl3   1  UNL1       -0.2846
     15 C          -3.1169    3.7984    2.8189 C.3     1  UNL1        0.0167
     16 C          -2.1797    4.2088    3.9741 C.3     1  UNL1       -0.0371
     17 C          -2.7705    3.8341    5.2680 C.3     1  UNL1       -0.0516
     18 C          -2.9704    2.3335    5.4566 C.3     1  UNL1       -0.0516
     19 C          -4.2865    1.9233    4.8432 C.3     1  UNL1       -0.0371
     20 C          -4.0758    1.4876    3.3817 C.3     1  UNL1        0.0167
     21 C           1.8957    5.3359   -0.0823 C.2     1  UNL1        0.0635
     22 O           2.0078    5.0051    1.0744 O.co2   1  UNL1       -0.5478
     23 C          -0.8509    6.6446   -1.1207 C.3     1  UNL1       -0.0486
     24 H           0.0630    5.9477    1.4416 H       1  UNL1        0.0244
     25 H          -1.6922    5.6965    1.2849 H       1  UNL1        0.0244
     26 H          -0.6010    4.2964    1.4159 H       1  UNL1        0.0244
     27 H          -2.1680    0.7091    1.7278 H       1  UNL1        0.1563
     28 H          -2.7669    4.2562    1.8937 H       1  UNL1        0.0465
     29 H          -4.1285    4.1425    3.0337 H       1  UNL1        0.0465
     30 H          -2.0232    5.2872    3.9476 H       1  UNL1        0.0280
     31 H          -1.2220    3.7022    3.8545 H       1  UNL1        0.0280
     32 H          -3.7382    4.3268    5.3622 H       1  UNL1        0.0266
     33 H          -2.1189    4.1990    6.0620 H       1  UNL1        0.0266
     34 H          -2.9763    2.0983    6.5209 H       1  UNL1        0.0266
     35 H          -2.1582    1.7939    4.9694 H       1  UNL1        0.0266
     36 H          -4.9774    2.7657    4.8733 H       1  UNL1        0.0280
     37 H          -4.7046    1.0924    5.4113 H       1  UNL1        0.0280
     38 H          -5.0334    1.5178    2.8619 H       1  UNL1        0.0465
     39 H          -3.6997    0.4647    3.3680 H       1  UNL1        0.0465
     40 H          -0.8396    6.5635   -2.2077 H       1  UNL1        0.0244
     41 H          -1.8290    6.9965   -0.7928 H       1  UNL1        0.0244
     42 H          -0.0847    7.3508   -0.8011 H       1  UNL1        0.0244
     43 N          -1.3411    2.5915    1.2251 N.2     1  UNL1       -0.2213
     44 H          -1.3985    3.6062    1.3706 H       1  UNL1        0.4472
     45 OXT         2.7281    6.2517   -0.6021 O.co2   1  UNL1       -0.5478
@<TRIPOS>UNITY_ATOM_ATTR
43 1
charge 1
45 1
charge -1
@<TRIPOS>BOND
     1     1     2    1
     2     1    24    1
     3     1    25    1
     4     1    26    1
     5     2     8    1
     6     2     3    1
     7     2    23    1
     8     3     4    1
     9     3     5    1
    10     3    21    1
    11     5    11   am
    12     5     6    1
    13     6     7    1
    14     6     8    1
    15     6     9    1
    16     9    10    1
    17     9    11    1
    18     9    43    1
    19    11    12    2
    20    13    14    1
    21    13    27    1
    22    13    43    2
    23    14    20    1
    24    14    15    1
    25    15    16    1
    26    15    28    1
    27    15    29    1
    28    16    17    1
    29    16    30    1
    30    16    31    1
    31    17    18    1
    32    17    32    1
    33    17    33    1
    34    18    19    1
    35    18    34    1
    36    18    35    1
    37    19    20    1
    38    19    36    1
    39    19    37    1
    40    20    38    1
    41    20    39    1
    42    21    22   ar
    43    21    45   ar
    44    23    40    1
    45    23    41    1
    46    23    42    1
    47    43    44    1
