@<TRIPOS>MOLECULE
ZINC08101076
 118 125 0 0 0
SMALL
GASTEIGER

@<TRIPOS>ATOM
      1 C           6.6702    8.7566    2.0681 C.3     1  UNL1       -0.0361
      2 C           5.6567    8.4773    0.9565 C.3     1  UNL1        0.0871
      3 H           5.2913    9.4212    0.5520 H       1  UNL1        0.0621
      4 C           4.4824    7.6769    1.5255 C.3     1  UNL1        0.1070
      5 H           3.9747    8.2672    2.2883 H       1  UNL1        0.0645
      6 C           3.5021    7.3497    0.3949 C.3     1  UNL1        0.0881
      7 H           3.0932    8.2744   -0.0122 H       1  UNL1        0.0621
      8 C           4.2458    6.5876   -0.7063 C.3     1  UNL1        0.0270
      9 C           5.4293    7.4302   -1.1891 C.3     1  UNL1        0.1626
     10 H           5.0608    8.3603   -1.6218 H       1  UNL1        0.0910
     11 O           6.2851    7.7248   -0.0833 O.3     1  UNL1       -0.3456
     12 O           6.1610    6.7019   -2.1772 O.3     1  UNL1       -0.3429
     13 C           7.1812    7.4649   -2.8246 C.3     1  UNL1        0.1134
     14 H           7.2755    8.4350   -2.3366 H       1  UNL1        0.0649
     15 C           6.8138    7.6650   -4.2972 C.3     1  UNL1        0.0875
     16 H           7.5720    8.2811   -4.7806 H       1  UNL1        0.0621
     17 O           6.7471    6.3940   -4.9471 O.3     1  UNL1       -0.3456
     18 C           7.9782    5.6685   -4.9375 C.3     1  UNL1        0.1626
     19 H           8.7516    6.2585   -5.4292 H       1  UNL1        0.0910
     20 C           8.3924    5.3882   -3.4906 C.3     1  UNL1        0.0270
     21 C           8.5144    6.7158   -2.7363 C.3     1  UNL1        0.0884
     22 H           9.3025    7.3197   -3.1862 H       1  UNL1        0.0622
     23 O           8.8302    6.4618   -1.3660 O.3     1  UNL1       -0.3890
     24 O           7.8081    4.4316   -5.6326 O.3     1  UNL1       -0.3429
     25 C           7.6510    4.5758   -7.0456 C.3     1  UNL1        0.1134
     26 H           7.2842    5.5772   -7.2710 H       1  UNL1        0.0649
     27 C           6.6499    3.5370   -7.5577 C.3     1  UNL1        0.0875
     28 H           6.4999    3.6738   -8.6287 H       1  UNL1        0.0621
     29 O           7.1593    2.2247   -7.3116 O.3     1  UNL1       -0.3456
     30 C           8.3965    1.9461   -7.9704 C.3     1  UNL1        0.1624
     31 H           8.2694    2.0620   -9.0467 H       1  UNL1        0.0910
     32 C           9.4678    2.9210   -7.4748 C.3     1  UNL1        0.0270
     33 C           9.0008    4.3563   -7.7358 C.3     1  UNL1        0.0884
     34 H           8.8918    4.5150   -8.8086 H       1  UNL1        0.0622
     35 O           9.9613    5.2746   -7.2102 O.3     1  UNL1       -0.3890
     36 O           8.7999    0.6064   -7.6797 O.3     1  UNL1       -0.3480
     37 C           7.9837   -0.3939   -8.2963 C.3     1  UNL1        0.0620
     38 H           7.5872    0.0021   -9.2336 H       1  UNL1        0.0597
     39 C           6.8247   -0.7389   -7.3668 C.3     1  UNL1       -0.0260
     40 C           5.9747   -1.8827   -7.9287 C.3     1  UNL1       -0.0448
     41 C           6.8591   -3.0960   -8.1864 C.3     1  UNL1       -0.0259
     42 C           7.9465   -2.7057   -9.1880 C.3     1  UNL1       -0.0330
     43 H           7.4502   -2.2564  -10.0650 H       1  UNL1        0.0307
     44 C           8.8428   -1.6275   -8.5970 C.3     1  UNL1       -0.0232
     45 C           8.7056   -3.9309   -9.6718 C.3     1  UNL1       -0.0493
     46 C           7.7628   -4.7705  -10.5517 C.3     1  UNL1       -0.0470
     47 C           6.3239   -4.3684  -10.2564 C.3     1  UNL1       -0.0083
     48 H           6.1945   -3.3389  -10.6535 H       1  UNL1        0.0331
     49 C           6.0828   -4.2867   -8.7519 C.3     1  UNL1       -0.0299
     50 H           6.5094   -5.1610   -8.2587 H       1  UNL1        0.0310
     51 C           4.5996   -4.1940   -8.4402 C.3     1  UNL1       -0.0488
     52 C           3.8233   -5.4319   -8.9151 C.3     1  UNL1       -0.0442
     53 C           4.5801   -6.1836   -9.9755 C.3     1  UNL1        0.0036
     54 C           5.2884   -5.2130  -10.9418 C.3     1  UNL1        0.0751
     55 C           5.8069   -6.1681  -12.0295 C.3     1  UNL1       -0.0226
     56 C           4.6311   -7.1645  -12.2110 C.3     1  UNL1       -0.0432
     57 C           3.7578   -7.0590  -10.9350 C.3     1  UNL1       -0.0081
     58 H           3.6428   -8.0540  -10.4915 H       1  UNL1        0.0353
     59 C           2.4039   -6.4831  -11.2607 C.2     1  UNL1       -0.0222
     60 C           1.2312   -7.1004  -11.1423 C.2     1  UNL1        0.0252
     61 C           0.1569   -6.1951  -11.5587 C.2     1  UNL1        0.3323
     62 O          -1.0267   -6.4711  -11.5598 O.2     1  UNL1       -0.2456
     63 O           0.6752   -5.0141  -11.9445 O.3     1  UNL1       -0.4571
     64 C           2.1199   -5.0968  -11.7902 C.3     1  UNL1        0.1147
     65 O           4.3224   -4.3274  -11.5485 O.3     1  UNL1       -0.3877
     66 C           5.5824   -7.1494   -9.3142 C.3     1  UNL1       -0.0564
     67 C           7.4909   -3.5511   -6.8680 C.3     1  UNL1       -0.0590
     68 C           5.3159    3.7114   -6.8291 C.3     1  UNL1       -0.0361
     69 C           5.4539    8.3595   -4.3939 C.3     1  UNL1       -0.0361
     70 O           2.4397    6.5400    0.9027 O.3     1  UNL1       -0.3890
     71 O           4.9672    6.4632    2.1034 O.3     1  UNL1       -0.3867
     72 H           7.0359    7.8125    2.4719 H       1  UNL1        0.0255
     73 H           7.5063    9.3265    1.6628 H       1  UNL1        0.0255
     74 H           6.1905    9.3297    2.8616 H       1  UNL1        0.0255
     75 H           4.6107    5.6398   -0.3105 H       1  UNL1        0.0340
     76 H           3.5689    6.3990   -1.5396 H       1  UNL1        0.0340
     77 H           9.3533    4.8736   -3.4799 H       1  UNL1        0.0340
     78 H           7.6395    4.7638   -3.0096 H       1  UNL1        0.0340
     79 H           9.6637    5.9892   -1.2355 H       1  UNL1        0.2099
     80 H           9.6243    2.7776   -6.4057 H       1  UNL1        0.0340
     81 H          10.4011    2.7381   -8.0074 H       1  UNL1        0.0340
     82 H          10.8409    5.1915   -7.6032 H       1  UNL1        0.2099
     83 H           7.2035   -0.9893   -6.3778 H       1  UNL1        0.0290
     84 H           6.1867    0.1501   -7.2629 H       1  UNL1        0.0290
     85 H           5.5040   -1.5651   -8.8632 H       1  UNL1        0.0271
     86 H           5.1934   -2.1426   -7.2089 H       1  UNL1        0.0271
     87 H           9.6035   -1.3526   -9.3397 H       1  UNL1        0.0293
     88 H           9.3473   -1.9690   -7.7004 H       1  UNL1        0.0293
     89 H           9.5617   -3.6149  -10.2747 H       1  UNL1        0.0268
     90 H           9.0565   -4.5296   -8.8366 H       1  UNL1        0.0268
     91 H           7.9123   -5.8236  -10.3301 H       1  UNL1        0.0269
     92 H           7.9884   -4.5781  -11.5999 H       1  UNL1        0.0269
     93 H           4.4584   -4.0847   -7.3584 H       1  UNL1        0.0268
     94 H           4.1777   -3.3060   -8.9237 H       1  UNL1        0.0268
     95 H           3.6513   -6.0940   -8.0526 H       1  UNL1        0.0272
     96 H           2.8424   -5.0993   -9.2661 H       1  UNL1        0.0272
     97 H           5.9851   -5.6199  -12.9580 H       1  UNL1        0.0293
     98 H           6.7121   -6.6803  -11.7177 H       1  UNL1        0.0293
     99 H           4.0436   -6.8956  -13.0880 H       1  UNL1        0.0272
    100 H           5.0134   -8.1802  -12.3148 H       1  UNL1        0.0272
    101 H           1.0924   -8.1123  -10.7911 H       1  UNL1        0.0689
    102 H           2.4652   -4.3456  -11.0798 H       1  UNL1        0.0746
    103 H           2.6100   -4.9552  -12.7534 H       1  UNL1        0.0746
    104 H           4.7063   -3.6916  -12.1677 H       1  UNL1        0.2102
    105 H           5.0382   -7.9326   -8.7865 H       1  UNL1        0.0236
    106 H           6.2137   -7.5988  -10.0807 H       1  UNL1        0.0236
    107 H           6.2043   -6.5998   -8.6076 H       1  UNL1        0.0236
    108 H           8.0849   -2.7383   -6.4501 H       1  UNL1        0.0235
    109 H           6.7052   -3.8260   -6.1643 H       1  UNL1        0.0235
    110 H           8.1325   -4.4131   -7.0511 H       1  UNL1        0.0235
    111 H           4.8926    4.6855   -7.0743 H       1  UNL1        0.0255
    112 H           4.6264    2.9268   -7.1406 H       1  UNL1        0.0255
    113 H           5.4783    3.6463   -5.7532 H       1  UNL1        0.0255
    114 H           5.4800    9.2900   -3.8269 H       1  UNL1        0.0255
    115 H           5.2303    8.5767   -5.4384 H       1  UNL1        0.0255
    116 H           4.6826    7.7066   -3.9854 H       1  UNL1        0.0255
    117 H           1.7805    6.2946    0.2391 H       1  UNL1        0.2099
    118 H           5.5978    6.5953    2.8244 H       1  UNL1        0.2100
@<TRIPOS>BOND
     1     1     2    1
     2     1    72    1
     3     1    73    1
     4     1    74    1
     5     2     3    1
     6     2    11    1
     7     2     4    1
     8     4     5    1
     9     4     6    1
    10     4    71    1
    11     6     7    1
    12     6     8    1
    13     6    70    1
    14     8     9    1
    15     8    75    1
    16     8    76    1
    17     9    10    1
    18     9    11    1
    19     9    12    1
    20    12    13    1
    21    13    14    1
    22    13    21    1
    23    13    15    1
    24    15    16    1
    25    15    17    1
    26    15    69    1
    27    17    18    1
    28    18    19    1
    29    18    20    1
    30    18    24    1
    31    20    21    1
    32    20    77    1
    33    20    78    1
    34    21    22    1
    35    21    23    1
    36    23    79    1
    37    24    25    1
    38    25    26    1
    39    25    33    1
    40    25    27    1
    41    27    28    1
    42    27    29    1
    43    27    68    1
    44    29    30    1
    45    30    31    1
    46    30    32    1
    47    30    36    1
    48    32    33    1
    49    32    80    1
    50    32    81    1
    51    33    34    1
    52    33    35    1
    53    35    82    1
    54    36    37    1
    55    37    38    1
    56    37    44    1
    57    37    39    1
    58    39    40    1
    59    39    83    1
    60    39    84    1
    61    40    41    1
    62    40    85    1
    63    40    86    1
    64    41    49    1
    65    41    42    1
    66    41    67    1
    67    42    43    1
    68    42    44    1
    69    42    45    1
    70    44    87    1
    71    44    88    1
    72    45    46    1
    73    45    89    1
    74    45    90    1
    75    46    47    1
    76    46    91    1
    77    46    92    1
    78    47    48    1
    79    47    54    1
    80    47    49    1
    81    49    50    1
    82    49    51    1
    83    51    52    1
    84    51    93    1
    85    51    94    1
    86    52    53    1
    87    52    95    1
    88    52    96    1
    89    53    57    1
    90    53    54    1
    91    53    66    1
    92    54    55    1
    93    54    65    1
    94    55    56    1
    95    55    97    1
    96    55    98    1
    97    56    57    1
    98    56    99    1
    99    56   100    1
   100    57    58    1
   101    57    59    1
   102    59    64    1
   103    59    60    2
   104    60    61    1
   105    60   101    1
   106    61    62    2
   107    61    63    1
   108    63    64    1
   109    64   102    1
   110    64   103    1
   111    65   104    1
   112    66   105    1
   113    66   106    1
   114    66   107    1
   115    67   108    1
   116    67   109    1
   117    67   110    1
   118    68   111    1
   119    68   112    1
   120    68   113    1
   121    69   114    1
   122    69   115    1
   123    69   116    1
   124    70   117    1
   125    71   118    1
