@<TRIPOS>MOLECULE
ZINC03831095
 62 65 0 0 0
SMALL
GASTEIGER

@<TRIPOS>ATOM
      1 C          -4.4452    4.3012    1.3446 C.3     1  UNL1       -0.0587
      2 C          -3.6546    3.3821    0.4064 C.3     1  UNL1       -0.0212
      3 H          -4.0724    3.4794   -0.6014 H       1  UNL1        0.0343
      4 C          -2.1971    3.8373    0.3791 C.3     1  UNL1       -0.0432
      5 C          -1.4193    3.1448    1.4868 C.3     1  UNL1       -0.0308
      6 H          -2.0041    3.2563    2.4216 H       1  UNL1        0.0308
      7 C          -0.0620    3.7650    1.7493 C.3     1  UNL1       -0.0292
      8 H           0.2556    3.5242    2.7874 H       1  UNL1        0.0310
      9 C          -0.1725    5.3028    1.5814 C.3     1  UNL1       -0.0463
     10 C           0.1654    5.5533    0.0987 C.3     1  UNL1       -0.0161
     11 C           1.1659    4.4431   -0.2891 C.3     1  UNL1        0.1326
     12 C           1.0396    3.3502    0.7709 C.3     1  UNL1        0.0092
     13 C           0.9637    1.9387    0.2696 C.3     1  UNL1       -0.0178
     14 C          -0.4269    1.3626    0.0356 C.3     1  UNL1        0.0600
     15 H          -0.2688    0.2660   -0.0507 H       1  UNL1        0.0596
     16 C          -1.3269    1.6467    1.2221 C.3     1  UNL1        0.0007
     17 H          -0.8305    1.2109    2.1172 H       1  UNL1        0.0340
     18 C          -2.6967    1.0292    1.1640 C.3     1  UNL1        0.0133
     19 C          -3.8191    1.9608    0.8552 C.2     1  UNL1       -0.0531
     20 C          -5.0794    1.4860    0.9439 C.2     1  UNL1       -0.0146
     21 C          -5.2947    0.1902    1.6292 C.2     1  UNL1        0.1787
     22 O          -6.3196   -0.4605    1.4607 O.2     1  UNL1       -0.2879
     23 C          -4.2373   -0.2710    2.5611 C.2     1  UNL1       -0.0180
     24 C          -2.9905    0.1971    2.3845 C.2     1  UNL1       -0.0701
     25 C          -2.7087    0.0125    0.0266 C.3     1  UNL1       -0.0520
     26 O          -0.9613    1.8211   -1.1997 O.3     1  UNL1       -0.3914
     27 C           2.3657    3.4194    1.5894 C.3     1  UNL1       -0.0562
     28 C           0.8899    3.9684   -1.6861 C.2     1  UNL1        0.2022
     29 O          -0.2268    4.0431   -2.1397 O.2     1  UNL1       -0.2907
     30 C           2.0064    3.3985   -2.5226 C.3     1  UNL1        0.1530
     31 O           1.4889    3.0144   -3.8237 O.3     1  UNL1       -0.4570
     32 C           2.3622    2.4854   -4.6950 C.2     1  UNL1        0.3043
     33 O           3.5208    2.3478   -4.3809 O.2     1  UNL1       -0.2512
     34 C           1.8977    2.0630   -6.0650 C.3     1  UNL1        0.0332
     35 O           2.4980    4.9891   -0.2407 O.3     1  UNL1       -0.3804
     36 H          -4.3867    5.3275    0.9822 H       1  UNL1        0.0235
     37 H          -5.4877    3.9839    1.3707 H       1  UNL1        0.0235
     38 H          -4.0233    4.2457    2.3481 H       1  UNL1        0.0235
     39 H          -2.1876    4.9271    0.5481 H       1  UNL1        0.0274
     40 H          -1.7648    3.6593   -0.6004 H       1  UNL1        0.0274
     41 H          -1.1742    5.6571    1.8211 H       1  UNL1        0.0269
     42 H           0.5532    5.8112    2.2246 H       1  UNL1        0.0269
     43 H          -0.7255    5.4893   -0.5202 H       1  UNL1        0.0297
     44 H           0.6340    6.5316   -0.0203 H       1  UNL1        0.0297
     45 H           1.4434    1.2967    1.0410 H       1  UNL1        0.0297
     46 H           1.5753    1.7977   -0.6218 H       1  UNL1        0.0297
     47 H          -5.9291    2.0763    0.5997 H       1  UNL1        0.0656
     48 H          -4.4491   -1.0065    3.3362 H       1  UNL1        0.0653
     49 H          -2.1932   -0.0608    3.0745 H       1  UNL1        0.0582
     50 H          -2.5568    0.5270   -0.9223 H       1  UNL1        0.0241
     51 H          -1.9091   -0.7125    0.1788 H       1  UNL1        0.0241
     52 H          -3.6687   -0.5034    0.0105 H       1  UNL1        0.0241
     53 H          -0.4816    1.5046   -1.9774 H       1  UNL1        0.2098
     54 H           3.2056    3.1661    0.9425 H       1  UNL1        0.0236
     55 H           2.4993    4.4282    1.9800 H       1  UNL1        0.0236
     56 H           2.3188    2.7123    2.4176 H       1  UNL1        0.0236
     57 H           2.7213    4.0880   -2.6386 H       1  UNL1        0.0779
     58 H           2.4233    2.5232   -2.0245 H       1  UNL1        0.0779
     59 H           0.8307    2.2626   -6.1644 H       1  UNL1        0.0342
     60 H           2.4444    2.6239   -6.8229 H       1  UNL1        0.0342
     61 H           2.0819    0.9970   -6.1984 H       1  UNL1        0.0342
     62 H           2.6589    5.6914   -0.8855 H       1  UNL1        0.2108
@<TRIPOS>BOND
     1     1     2    1
     2     1    36    1
     3     1    37    1
     4     1    38    1
     5     2     3    1
     6     2    19    1
     7     2     4    1
     8     4     5    1
     9     4    39    1
    10     4    40    1
    11     5     6    1
    12     5    16    1
    13     5     7    1
    14     7     8    1
    15     7    12    1
    16     7     9    1
    17     9    10    1
    18     9    41    1
    19     9    42    1
    20    10    11    1
    21    10    43    1
    22    10    44    1
    23    11    12    1
    24    11    28    1
    25    11    35    1
    26    12    13    1
    27    12    27    1
    28    13    14    1
    29    13    45    1
    30    13    46    1
    31    14    15    1
    32    14    16    1
    33    14    26    1
    34    16    17    1
    35    16    18    1
    36    18    24    1
    37    18    19    1
    38    18    25    1
    39    19    20    2
    40    20    21    1
    41    20    47    1
    42    21    22    2
    43    21    23    1
    44    23    24    2
    45    23    48    1
    46    24    49    1
    47    25    50    1
    48    25    51    1
    49    25    52    1
    50    26    53    1
    51    27    54    1
    52    27    55    1
    53    27    56    1
    54    28    29    2
    55    28    30    1
    56    30    31    1
    57    30    57    1
    58    30    58    1
    59    31    32    1
    60    32    33    2
    61    32    34    1
    62    34    59    1
    63    34    60    1
    64    34    61    1
    65    35    62    1
