@<TRIPOS>MOLECULE
ZINC03831019
 42 41 0 0 0
SMALL
GASTEIGER

@<TRIPOS>ATOM
      1 C           2.0826    1.1037    6.1573 C.3     1  UNL1       -0.0198
      2 C           1.3004    1.5547    7.3925 C.3     1  UNL1        0.0626
      3 CL          2.1822    1.0466    8.8808 Cl      1  UNL1       -0.1199
      4 C           2.0874    1.1006    3.7360 C.3     1  UNL1       -0.0044
      5 C           1.3102    1.5483    2.4965 C.3     1  UNL1        0.1229
      6 H           1.2094    2.6337    2.5033 H       1  UNL1        0.0674
      7 C           2.0636    1.1140    1.2377 C.3     1  UNL1        0.1144
      8 H           2.1644    0.0287    1.2309 H       1  UNL1        0.0648
      9 C           1.2864    1.5618   -0.0018 C.3     1  UNL1        0.1144
     10 H           1.1856    2.6471    0.0050 H       1  UNL1        0.0648
     11 C           2.0397    1.1274   -1.2607 C.3     1  UNL1        0.1229
     12 H           2.1405    0.0421   -1.2675 H       1  UNL1        0.0674
     13 C           1.2625    1.5752   -2.5002 C.3     1  UNL1       -0.0044
     14 C           1.2016    1.4667   -4.9183 C.3     1  UNL1       -0.0198
     15 C           1.9165    0.9081   -6.1502 C.3     1  UNL1        0.0626
     16 CL          1.0325    1.4125   -7.6384 Cl      1  UNL1       -0.1199
     17 O           3.3371    1.7263   -1.2698 O.3     1  UNL1       -0.3838
     18 O          -0.0110    0.9628    0.0073 O.3     1  UNL1       -0.3864
     19 O           3.3610    1.7129    1.2285 O.3     1  UNL1       -0.3864
     20 O           0.0128    0.9494    2.5057 O.3     1  UNL1       -0.3838
     21 H           2.1833    0.0184    6.1673 H       1  UNL1        0.0825
     22 H           3.0721    1.5606    6.1671 H       1  UNL1        0.0825
     23 H           1.1996    2.6400    7.3825 H       1  UNL1        0.0482
     24 H           0.3108    1.0978    7.3827 H       1  UNL1        0.0482
     25 H           2.1882    0.0153    3.7292 H       1  UNL1        0.0840
     26 H           3.0770    1.5574    3.7290 H       1  UNL1        0.0840
     27 H           0.2439    1.1907   -2.4488 H       1  UNL1        0.0840
     28 H           1.2382    2.6642   -2.5400 H       1  UNL1        0.0840
     29 H           0.1825    1.0814   -4.8837 H       1  UNL1        0.0825
     30 H           1.1769    2.5550   -4.9749 H       1  UNL1        0.0825
     31 H           2.9356    1.2933   -6.1847 H       1  UNL1        0.0482
     32 H           1.9413   -0.1802   -6.0936 H       1  UNL1        0.0482
     33 H           3.3240    2.6932   -1.2645 H       1  UNL1        0.2101
     34 H           0.0021   -0.0041    0.0020 H       1  UNL1        0.2100
     35 H           3.3479    2.6798    1.2338 H       1  UNL1        0.2100
     36 H           0.0259   -0.0175    2.5003 H       1  UNL1        0.2101
     37 N           1.3548    1.5230    4.9446 N.4     1  UNL1        0.2297
     38 H           1.2598    2.5453    4.9431 H       1  UNL1        0.2015
     39 H           0.4226    1.0926    4.9433 H       1  UNL1        0.2015
     40 N           1.9307    1.0497   -3.7057 N.4     1  UNL1        0.2297
     41 H           1.9538    0.0242   -3.6602 H       1  UNL1        0.2015
     42 H           2.8905    1.4122   -3.7461 H       1  UNL1        0.2015
@<TRIPOS>UNITY_ATOM_ATTR
37 1
charge 1
40 1
charge 1
@<TRIPOS>BOND
     1     1     2    1
     2     1    21    1
     3     1    22    1
     4     1    37    1
     5     2     3    1
     6     2    23    1
     7     2    24    1
     8     4     5    1
     9     4    25    1
    10     4    26    1
    11     4    37    1
    12     5     6    1
    13     5     7    1
    14     5    20    1
    15     7     8    1
    16     7     9    1
    17     7    19    1
    18     9    10    1
    19     9    11    1
    20     9    18    1
    21    11    12    1
    22    11    13    1
    23    11    17    1
    24    13    27    1
    25    13    28    1
    26    13    40    1
    27    14    15    1
    28    14    29    1
    29    14    30    1
    30    14    40    1
    31    15    16    1
    32    15    31    1
    33    15    32    1
    34    17    33    1
    35    18    34    1
    36    19    35    1
    37    20    36    1
    38    37    38    1
    39    37    39    1
    40    40    41    1
    41    40    42    1
