@<TRIPOS>MOLECULE
ZINC13298659
 51 54 0 0 0
SMALL
GASTEIGER

@<TRIPOS>ATOM
      1 C          -0.4838   -2.6995    3.7467 C.3     1  UNL1       -0.0556
      2 C          -0.6719   -1.1885    3.8962 C.3     1  UNL1       -0.0072
      3 C          -1.8875   -0.9098    4.7823 C.3     1  UNL1       -0.0367
      4 C          -1.6415   -1.5138    6.1690 C.3     1  UNL1        0.0107
      5 C          -0.3700   -0.9333    6.7360 C.2     1  UNL1        0.1561
      6 O          -0.2249   -0.8464    7.9374 O.2     1  UNL1       -0.2927
      7 C           0.6872   -0.4759    5.8363 C.2     1  UNL1       -0.0194
      8 C           0.5587   -0.5829    4.5181 C.2     1  UNL1       -0.0601
      9 C           1.6471   -0.0890    3.5972 C.3     1  UNL1       -0.0305
     10 C           1.0890    0.9886    2.7020 C.3     1  UNL1       -0.0459
     11 C          -0.4213    0.8852    2.5032 C.3     1  UNL1       -0.0337
     12 H          -0.9034    1.4013    3.3335 H       1  UNL1        0.0307
     13 C          -0.8925   -0.5598    2.5139 C.3     1  UNL1       -0.0288
     14 H          -0.3460   -1.1286    1.7615 H       1  UNL1        0.0312
     15 C          -2.3957   -0.6131    2.2093 C.3     1  UNL1       -0.0485
     16 C          -2.6880   -0.0070    0.8343 C.3     1  UNL1       -0.0435
     17 C          -2.2638    1.4652    0.8044 C.3     1  UNL1        0.0111
     18 C          -0.7911    1.6110    1.2288 C.3     1  UNL1       -0.0289
     19 H          -0.5653    2.6690    1.3622 H       1  UNL1        0.0310
     20 C          -0.0127    1.0858    0.0080 C.3     1  UNL1       -0.0458
     21 C          -0.8173    1.6261   -1.1967 C.3     1  UNL1       -0.0118
     22 C          -2.2461    1.8927   -0.6874 C.3     1  UNL1        0.1317
     23 C          -3.2141    1.0927   -1.4553 C.1     1  UNL1       -0.0704
     24 C          -3.9861    0.4546   -2.0678 C.1     1  UNL1       -0.1163
     25 O          -2.5572    3.2826   -0.8033 O.3     1  UNL1       -0.3760
     26 C          -3.1921    2.3444    1.6448 C.3     1  UNL1       -0.0558
     27 H           0.3829   -2.8970    3.1158 H       1  UNL1        0.0238
     28 H          -0.3272   -3.1451    4.7290 H       1  UNL1        0.0238
     29 H          -1.3729   -3.1328    3.2887 H       1  UNL1        0.0238
     30 H          -2.0333    0.1666    4.8738 H       1  UNL1        0.0278
     31 H          -2.7743   -1.3616    4.3378 H       1  UNL1        0.0278
     32 H          -2.4107   -1.2947    6.7692 H       1  UNL1        0.0345
     33 H          -1.5445   -2.5961    6.0838 H       1  UNL1        0.0345
     34 H           1.5869   -0.0443    6.2494 H       1  UNL1        0.0652
     35 H           2.4703    0.3114    4.1889 H       1  UNL1        0.0310
     36 H           2.0073   -0.9150    2.9840 H       1  UNL1        0.0310
     37 H           1.5784    0.9166    1.7307 H       1  UNL1        0.0271
     38 H           1.3215    1.9588    3.1410 H       1  UNL1        0.0271
     39 H          -2.7363   -1.6482    2.2377 H       1  UNL1        0.0268
     40 H          -2.9387   -0.0303    2.9533 H       1  UNL1        0.0268
     41 H          -3.7488   -0.0833    0.5957 H       1  UNL1        0.0272
     42 H          -2.1109   -0.5653    0.0972 H       1  UNL1        0.0272
     43 H           0.0021   -0.0041    0.0020 H       1  UNL1        0.0269
     44 H           1.0026    1.4823    0.0004 H       1  UNL1        0.0269
     45 H          -0.3710    2.5523   -1.5586 H       1  UNL1        0.0303
     46 H          -0.8377    0.8842   -1.9949 H       1  UNL1        0.0303
     47 H          -4.6766   -0.1161   -2.6156 H       1  UNL1        0.1229
     48 H          -2.5367    3.6158   -1.7109 H       1  UNL1        0.2114
     49 H          -4.2133    2.2517    1.2752 H       1  UNL1        0.0236
     50 H          -3.1520    2.0239    2.6858 H       1  UNL1        0.0236
     51 H          -2.8723    3.3838    1.5721 H       1  UNL1        0.0236
@<TRIPOS>BOND
     1     1     2    1
     2     1    27    1
     3     1    28    1
     4     1    29    1
     5     2     8    1
     6     2    13    1
     7     2     3    1
     8     3     4    1
     9     3    30    1
    10     3    31    1
    11     4     5    1
    12     4    32    1
    13     4    33    1
    14     5     6    2
    15     5     7    1
    16     7     8    2
    17     7    34    1
    18     8     9    1
    19     9    10    1
    20     9    35    1
    21     9    36    1
    22    10    11    1
    23    10    37    1
    24    10    38    1
    25    11    12    1
    26    11    18    1
    27    11    13    1
    28    13    14    1
    29    13    15    1
    30    15    16    1
    31    15    39    1
    32    15    40    1
    33    16    17    1
    34    16    41    1
    35    16    42    1
    36    17    22    1
    37    17    18    1
    38    17    26    1
    39    18    19    1
    40    18    20    1
    41    20    21    1
    42    20    43    1
    43    20    44    1
    44    21    22    1
    45    21    45    1
    46    21    46    1
    47    22    23    1
    48    22    25    1
    49    23    24    3
    50    24    47    1
    51    25    48    1
    52    26    49    1
    53    26    50    1
    54    26    51    1
