@<TRIPOS>MOLECULE
ZINC00000596
 49 51 0 0 0
SMALL
GASTEIGER

@<TRIPOS>ATOM
      1 C           1.1810    0.6734   -0.4602 C.3     1  UNL1       -0.0565
      2 C          -0.3103    0.3734   -0.2964 C.3     1  UNL1        0.0091
      3 H          -0.4566   -0.6974   -0.1546 H       1  UNL1        0.0361
      4 C          -0.8596    1.1333    0.9106 C.3     1  UNL1       -0.0131
      5 H          -0.3716    0.7400    1.8024 H       1  UNL1        0.0857
      6 C          -0.4886    2.6026    0.8088 C.3     1  UNL1        0.0161
      7 C          -0.7124    3.1461   -0.5773 C.ar    1  UNL1       -0.0381
      8 C          -0.6417    4.5245   -0.7476 C.ar    1  UNL1       -0.0547
      9 C          -0.8037    5.0868   -1.9953 C.ar    1  UNL1       -0.0199
     10 C          -1.0399    4.2730   -3.0941 C.ar    1  UNL1        0.1172
     11 C          -1.1181    2.9007   -2.9238 C.ar    1  UNL1       -0.0162
     12 C          -0.9596    2.3404   -1.6653 C.ar    1  UNL1       -0.0340
     13 C          -1.0712    0.8387   -1.5424 C.3     1  UNL1        0.0058
     14 C          -2.5604    0.5047   -1.3358 C.3     1  UNL1       -0.0027
     15 C          -3.0578    1.3124   -0.1317 C.3     1  UNL1       -0.0305
     16 C          -2.8018    1.6243    2.2533 C.3     1  UNL1       -0.0125
     17 C          -4.2991    1.4695    2.3258 C.2     1  UNL1       -0.0407
     18 C          -5.0630    2.5289    2.4263 C.2     1  UNL1       -0.0747
     19 C          -4.4429    3.8911    2.6019 C.3     1  UNL1       -0.0439
     20 C          -6.5620    2.3854    2.3663 C.3     1  UNL1       -0.0439
     21 C          -0.5306    0.1432   -2.7933 C.3     1  UNL1       -0.0549
     22 O          -1.1938    4.8189   -4.3291 O.3     1  UNL1       -0.5068
     23 H           1.7168    0.3508    0.4325 H       1  UNL1        0.0235
     24 H           1.5661    0.1382   -1.3282 H       1  UNL1        0.0235
     25 H           1.3227    1.7449   -0.6017 H       1  UNL1        0.0235
     26 H          -1.0945    3.1709    1.5146 H       1  UNL1        0.0368
     27 H           0.5628    2.7216    1.0708 H       1  UNL1        0.0368
     28 H          -0.4582    5.1602    0.1059 H       1  UNL1        0.0622
     29 H          -0.7465    6.1583   -2.1177 H       1  UNL1        0.0654
     30 H          -1.3033    2.2635   -3.7759 H       1  UNL1        0.0657
     31 H          -2.6758   -0.5611   -1.1388 H       1  UNL1        0.0325
     32 H          -3.1280    0.7795   -2.2249 H       1  UNL1        0.0325
     33 H          -4.1155    1.1061    0.0322 H       1  UNL1        0.0815
     34 H          -2.9211    2.3761   -0.3263 H       1  UNL1        0.0815
     35 H          -2.3482    1.1918    3.1451 H       1  UNL1        0.0861
     36 H          -2.5484    2.6828    2.1938 H       1  UNL1        0.0861
     37 H          -4.7423    0.4851    2.2948 H       1  UNL1        0.0624
     38 H          -4.1823    4.3003    1.6258 H       1  UNL1        0.0274
     39 H          -5.1543    4.5533    3.0953 H       1  UNL1        0.0274
     40 H          -3.5435    3.8050    3.2116 H       1  UNL1        0.0274
     41 H          -6.8215    1.3347    2.2372 H       1  UNL1        0.0274
     42 H          -6.9998    2.7566    3.2929 H       1  UNL1        0.0274
     43 H          -6.9487    2.9612    1.5255 H       1  UNL1        0.0274
     44 H          -0.6488   -0.9354   -2.6891 H       1  UNL1        0.0238
     45 H          -1.0835    0.4866   -3.6676 H       1  UNL1        0.0238
     46 H           0.5259    0.3828   -2.9143 H       1  UNL1        0.0238
     47 H          -2.1084    5.0436   -4.5486 H       1  UNL1        0.2921
     48 N          -2.3079    0.8926    1.0783 N.4     1  UNL1        0.2407
     49 H          -2.4589   -0.1122    1.2258 H       1  UNL1        0.2040
@<TRIPOS>UNITY_ATOM_ATTR
48 1
charge 1
@<TRIPOS>BOND
     1     1     2    1
     2     1    23    1
     3     1    24    1
     4     1    25    1
     5     2     3    1
     6     2    13    1
     7     2     4    1
     8     4     5    1
     9     4     6    1
    10     4    48    1
    11     6     7    1
    12     6    26    1
    13     6    27    1
    14     7    12   ar
    15     7     8   ar
    16     8     9   ar
    17     8    28    1
    18     9    10   ar
    19     9    29    1
    20    10    11   ar
    21    10    22    1
    22    11    12   ar
    23    11    30    1
    24    12    13    1
    25    13    14    1
    26    13    21    1
    27    14    15    1
    28    14    31    1
    29    14    32    1
    30    15    33    1
    31    15    34    1
    32    15    48    1
    33    16    17    1
    34    16    35    1
    35    16    36    1
    36    16    48    1
    37    17    18    2
    38    17    37    1
    39    18    19    1
    40    18    20    1
    41    19    38    1
    42    19    39    1
    43    19    40    1
    44    20    41    1
    45    20    42    1
    46    20    43    1
    47    21    44    1
    48    21    45    1
    49    21    46    1
    50    22    47    1
    51    48    49    1
