@<TRIPOS>MOLECULE
ZINC00896849
 49 51 0 0 0
SMALL
GASTEIGER

@<TRIPOS>ATOM
      1 C          -4.6503   -0.2767    0.1917 C.3     1  UNL1       -0.0582
      2 C          -3.2604   -0.5247    0.7813 C.3     1  UNL1        0.0076
      3 C          -3.0800    0.3213    2.0153 C.2     1  UNL1        0.1630
      4 O          -3.9754    1.0510    2.3868 O.2     1  UNL1       -0.2921
      5 C          -1.8223    0.2626    2.7671 C.ar    1  UNL1        0.0192
      6 C          -0.7446   -0.4847    2.2752 C.ar    1  UNL1       -0.0501
      7 C           0.4318   -0.5359    2.9858 C.ar    1  UNL1       -0.0455
      8 C           0.5584    0.1513    4.1908 C.ar    1  UNL1        0.0341
      9 C          -0.5083    0.9024    4.6901 C.ar    1  UNL1        0.0487
     10 C          -1.6938    0.9585    3.9761 C.ar    1  UNL1       -0.0288
     11 N          -0.4136    1.6093    5.8862 N.pl3   1  UNL1       -0.2929
     12 C           0.4726    1.3174    6.9186 C.ar    1  UNL1        0.0480
     13 C           0.1624    1.7398    8.2078 C.ar    1  UNL1       -0.0393
     14 C           1.0216    1.4718    9.2559 C.ar    1  UNL1       -0.0599
     15 C           2.1979    0.7815    9.0322 C.ar    1  UNL1       -0.0606
     16 C           2.5157    0.3553    7.7559 C.ar    1  UNL1       -0.0462
     17 C           1.6566    0.6194    6.6983 C.ar    1  UNL1        0.0341
     18 S           2.0764    0.0623    5.0807 S.3     1  UNL1       -0.0857
     19 C          -1.3169    2.7476    6.0720 C.3     1  UNL1        0.0599
     20 C          -0.7264    3.9837    5.3908 C.3     1  UNL1       -0.0078
     21 H          -0.5596    3.7717    4.3347 H       1  UNL1        0.0864
     22 C          -1.7003    5.1558    5.5280 C.3     1  UNL1       -0.0201
     23 C           1.2989    5.2990    5.2149 C.3     1  UNL1       -0.0430
     24 C           0.3383    4.8402    7.3896 C.3     1  UNL1       -0.0430
     25 H          -5.4096   -0.5411    0.9277 H       1  UNL1        0.0234
     26 H          -4.7507    0.7762   -0.0717 H       1  UNL1        0.0234
     27 H          -4.7808   -0.8886   -0.7009 H       1  UNL1        0.0234
     28 H          -3.1684   -1.4907    1.0230 H       1  UNL1        0.0342
     29 H          -2.5011   -0.2603    0.0453 H       1  UNL1        0.0342
     30 H          -0.8371   -1.0185    1.3410 H       1  UNL1        0.0625
     31 H           1.2628   -1.1124    2.6070 H       1  UNL1        0.0629
     32 H          -2.5231    1.5379    4.3544 H       1  UNL1        0.0643
     33 H          -0.7550    2.2796    8.3899 H       1  UNL1        0.0636
     34 H           0.7733    1.8031   10.2534 H       1  UNL1        0.0618
     35 H           2.8680    0.5749    9.8536 H       1  UNL1        0.0618
     36 H           3.4346   -0.1847    7.5816 H       1  UNL1        0.0629
     37 H          -2.2866    2.5178    5.6306 H       1  UNL1        0.0524
     38 H          -1.4399    2.9437    7.1372 H       1  UNL1        0.0524
     39 H          -1.2797    6.0364    5.0427 H       1  UNL1        0.0285
     40 H          -2.6479    4.8981    5.0551 H       1  UNL1        0.0285
     41 H          -1.8671    5.3678    6.5841 H       1  UNL1        0.0285
     42 H           0.7086    6.2077    5.0971 H       1  UNL1        0.0777
     43 H           2.2400    5.5387    5.7098 H       1  UNL1        0.0777
     44 H           1.5032    4.8687    4.2345 H       1  UNL1        0.0777
     45 H          -0.2802    4.1375    7.9479 H       1  UNL1        0.0777
     46 H           1.3003    4.9539    7.8892 H       1  UNL1        0.0777
     47 H          -0.1629    5.8070    7.3419 H       1  UNL1        0.0777
     48 N           0.5664    4.3071    6.0301 N.4     1  UNL1        0.2340
     49 H           1.1286    3.4506    6.0977 H       1  UNL1        0.2031
@<TRIPOS>UNITY_ATOM_ATTR
48 1
charge 1
@<TRIPOS>BOND
     1     1     2    1
     2     1    25    1
     3     1    26    1
     4     1    27    1
     5     2     3    1
     6     2    28    1
     7     2    29    1
     8     3     4    2
     9     3     5    1
    10     5    10   ar
    11     5     6   ar
    12     6     7   ar
    13     6    30    1
    14     7     8   ar
    15     7    31    1
    16     8    18    1
    17     8     9   ar
    18     9    10   ar
    19     9    11    1
    20    10    32    1
    21    11    12    1
    22    11    19    1
    23    12    17   ar
    24    12    13   ar
    25    13    14   ar
    26    13    33    1
    27    14    15   ar
    28    14    34    1
    29    15    16   ar
    30    15    35    1
    31    16    17   ar
    32    16    36    1
    33    17    18    1
    34    19    20    1
    35    19    37    1
    36    19    38    1
    37    20    21    1
    38    20    22    1
    39    20    48    1
    40    22    39    1
    41    22    40    1
    42    22    41    1
    43    23    42    1
    44    23    43    1
    45    23    44    1
    46    23    48    1
    47    24    45    1
    48    24    46    1
    49    24    47    1
    50    24    48    1
    51    48    49    1
