@<TRIPOS>MOLECULE
ZINC03830643
 49 52 0 0 0
SMALL
GASTEIGER

@<TRIPOS>ATOM
      1 C           0.7230   -3.3169    5.1026 C.3     1  UNL1       -0.0526
      2 C          -0.1991   -3.5970    3.9180 C.3     1  UNL1        0.0293
      3 C           0.6068   -3.9418    2.6937 C.3     1  UNL1       -0.0404
      4 C           1.3055   -2.6712    2.1641 C.3     1  UNL1       -0.0483
      5 C           0.2819   -1.6055    1.8278 C.3     1  UNL1       -0.0285
      6 H          -0.4336   -2.0715    1.1226 H       1  UNL1        0.0312
      7 C          -0.5441   -1.2135    3.0692 C.3     1  UNL1       -0.0303
      8 H          -1.3425   -0.5122    2.7327 H       1  UNL1        0.0310
      9 C          -1.1829   -2.4525    3.6132 C.3     1  UNL1       -0.0252
     10 H          -1.9073   -2.8248    2.8404 H       1  UNL1        0.0313
     11 C          -1.9625   -2.3731    4.9326 C.3     1  UNL1       -0.0424
     12 C          -2.1569   -3.8803    5.2758 C.3     1  UNL1        0.0067
     13 C          -1.1794   -4.6560    4.3940 C.2     1  UNL1        0.1395
     14 O          -1.1712   -5.8237    4.1278 O.2     1  UNL1       -0.2968
     15 C           0.3540   -0.4689    4.0487 C.3     1  UNL1       -0.0311
     16 C           0.9263    0.7379    3.3483 C.2     1  UNL1       -0.0839
     17 C           1.1591    0.7507    2.0755 C.2     1  UNL1       -0.0648
     18 C           0.8209   -0.3738    1.1327 C.3     1  UNL1       -0.0078
     19 C          -0.2348    0.1549    0.1488 C.3     1  UNL1       -0.0413
     20 C          -0.3336    1.6728    0.2192 C.3     1  UNL1       -0.0258
     21 C           1.0209    2.3667    0.2190 C.3     1  UNL1        0.0590
     22 H           0.8620    3.4528    0.2339 H       1  UNL1        0.0596
     23 C           1.8253    1.9717    1.4616 C.3     1  UNL1       -0.0051
     24 O           1.7460    2.0337   -0.9648 O.3     1  UNL1       -0.3915
     25 C           2.0676   -0.7325    0.3273 C.3     1  UNL1       -0.0556
     26 H           1.4799   -2.5893    4.8097 H       1  UNL1        0.0239
     27 H           0.1383   -2.9192    5.9321 H       1  UNL1        0.0239
     28 H           1.2090   -4.2424    5.4114 H       1  UNL1        0.0239
     29 H          -0.0471   -4.3427    1.9148 H       1  UNL1        0.0275
     30 H           1.3636   -4.6903    2.9417 H       1  UNL1        0.0275
     31 H           1.8538   -2.9806    1.2693 H       1  UNL1        0.0269
     32 H           2.0102   -2.3034    2.9028 H       1  UNL1        0.0269
     33 H          -2.9328   -1.8960    4.7737 H       1  UNL1        0.0272
     34 H          -1.4088   -1.8563    5.7070 H       1  UNL1        0.0272
     35 H          -3.1024   -4.1458    5.0874 H       1  UNL1        0.0342
     36 H          -1.9343   -4.0548    6.3264 H       1  UNL1        0.0342
     37 H           1.2031   -1.0706    4.3582 H       1  UNL1        0.0310
     38 H          -0.2163   -0.1399    4.9143 H       1  UNL1        0.0310
     39 H           1.1721    1.6016    3.9383 H       1  UNL1        0.0572
     40 H          -1.2002   -0.2848    0.4045 H       1  UNL1        0.0274
     41 H           0.0423   -0.1505   -0.8600 H       1  UNL1        0.0274
     42 H          -0.9135    2.0292   -0.6388 H       1  UNL1        0.0290
     43 H          -0.8764    1.9524    1.1274 H       1  UNL1        0.0290
     44 H           1.8140    2.7935    2.1840 H       1  UNL1        0.0335
     45 H           2.8567    1.7487    1.1927 H       1  UNL1        0.0335
     46 H           2.6183    2.4471   -1.0211 H       1  UNL1        0.2098
     47 H           2.4377    0.1560   -0.1844 H       1  UNL1        0.0238
     48 H           2.8375   -1.1119    0.9992 H       1  UNL1        0.0238
     49 H           1.8177   -1.4975   -0.4078 H       1  UNL1        0.0238
@<TRIPOS>BOND
     1     1     2    1
     2     1    26    1
     3     1    27    1
     4     1    28    1
     5     2     9    1
     6     2    13    1
     7     2     3    1
     8     3     4    1
     9     3    29    1
    10     3    30    1
    11     4     5    1
    12     4    31    1
    13     4    32    1
    14     5     6    1
    15     5    18    1
    16     5     7    1
    17     7     8    1
    18     7     9    1
    19     7    15    1
    20     9    10    1
    21     9    11    1
    22    11    12    1
    23    11    33    1
    24    11    34    1
    25    12    13    1
    26    12    35    1
    27    12    36    1
    28    13    14    2
    29    15    16    1
    30    15    37    1
    31    15    38    1
    32    16    17    2
    33    16    39    1
    34    17    23    1
    35    17    18    1
    36    18    19    1
    37    18    25    1
    38    19    20    1
    39    19    40    1
    40    19    41    1
    41    20    21    1
    42    20    42    1
    43    20    43    1
    44    21    22    1
    45    21    23    1
    46    21    24    1
    47    23    44    1
    48    23    45    1
    49    24    46    1
    50    25    47    1
    51    25    48    1
    52    25    49    1
