@<TRIPOS>MOLECULE
ZINC03830323
 66 68 0 0 0
SMALL
GASTEIGER

@<TRIPOS>ATOM
      1 C           4.5086    0.7331    0.9102 C.3     1  UNL1       -0.0397
      2 C           3.1594    1.4039    0.9329 C.ar    1  UNL1       -0.0504
      3 C           2.6278    1.8409    2.1333 C.ar    1  UNL1       -0.0581
      4 C           1.3932    2.4558    2.1614 C.ar    1  UNL1       -0.0475
      5 C           0.6801    2.6371    0.9747 C.ar    1  UNL1        0.0594
      6 C           1.2227    2.1940   -0.2332 C.ar    1  UNL1       -0.0475
      7 C           2.4580    1.5804   -0.2467 C.ar    1  UNL1       -0.0581
      8 C          -0.6452    3.2892    0.9978 C.2     1  UNL1        0.3445
      9 O          -1.1169    3.6691    2.0509 O.2     1  UNL1       -0.2445
     10 O          -1.3306    3.4626   -0.1488 O.3     1  UNL1       -0.4186
     11 C          -2.5870    3.9719   -0.0459 C.ar    1  UNL1        0.1741
     12 C          -3.6790    3.1204    0.0155 C.ar    1  UNL1       -0.0152
     13 C          -4.9553    3.6400    0.1200 C.ar    1  UNL1       -0.0522
     14 C          -5.1469    5.0088    0.1632 C.ar    1  UNL1       -0.0104
     15 C          -4.0627    5.8638    0.1024 C.ar    1  UNL1       -0.0097
     16 C          -2.7793    5.3496    0.0037 C.ar    1  UNL1        0.1744
     17 O          -1.7112    6.1892   -0.0506 O.3     1  UNL1       -0.4186
     18 C          -1.2579    6.5238   -1.2742 C.2     1  UNL1        0.3445
     19 O          -1.7403    6.0080   -2.2627 O.2     1  UNL1       -0.2445
     20 C          -0.1744    7.5180   -1.4140 C.ar    1  UNL1        0.0594
     21 C           0.3784    8.1170   -0.2803 C.ar    1  UNL1       -0.0475
     22 C           1.3933    9.0411   -0.4178 C.ar    1  UNL1       -0.0581
     23 C           1.8561    9.3828   -1.6762 C.ar    1  UNL1       -0.0504
     24 C           1.3096    8.7966   -2.8042 C.ar    1  UNL1       -0.0581
     25 C           0.2978    7.8672   -2.6808 C.ar    1  UNL1       -0.0475
     26 C           2.9609   10.3978   -1.8189 C.3     1  UNL1       -0.0397
     27 C          -6.5411    5.5696    0.2762 C.3     1  UNL1        0.1198
     28 H          -6.5615    6.5783   -0.1363 H       1  UNL1        0.0698
     29 C          -6.9559    5.6121    1.7483 C.3     1  UNL1       -0.0023
     30 C          -8.7477    6.2147    3.2611 C.3     1  UNL1       -0.0203
     31 C          -7.7932    7.1096    4.0541 C.3     1  UNL1       -0.0193
     32 C         -10.1643    6.7880    3.3353 C.3     1  UNL1       -0.0193
     33 C          -8.7365    4.8046    3.8549 C.3     1  UNL1       -0.0193
     34 O          -7.4489    4.7392   -0.4507 O.3     1  UNL1       -0.3819
     35 H           4.3820   -0.3421    1.0371 H       1  UNL1        0.0278
     36 H           4.9969    0.9313   -0.0440 H       1  UNL1        0.0278
     37 H           5.1229    1.1248    1.7209 H       1  UNL1        0.0278
     38 H           3.1805    1.7001    3.0504 H       1  UNL1        0.0620
     39 H           0.9794    2.7964    3.0990 H       1  UNL1        0.0626
     40 H           0.6763    2.3311   -1.1546 H       1  UNL1        0.0626
     41 H           2.8789    1.2372   -1.1802 H       1  UNL1        0.0620
     42 H          -3.5323    2.0509   -0.0180 H       1  UNL1        0.0656
     43 H          -5.8053    2.9753    0.1678 H       1  UNL1        0.0622
     44 H          -4.2152    6.9325    0.1366 H       1  UNL1        0.0659
     45 H           0.0149    7.8545    0.7023 H       1  UNL1        0.0626
     46 H           1.8245    9.5022    0.4584 H       1  UNL1        0.0620
     47 H           1.6758    9.0676   -3.7834 H       1  UNL1        0.0620
     48 H          -0.1278    7.4103   -3.5620 H       1  UNL1        0.0626
     49 H           2.5292   11.3949   -1.9061 H       1  UNL1        0.0278
     50 H           3.6072   10.3571   -0.9421 H       1  UNL1        0.0278
     51 H           3.5454   10.1756   -2.7117 H       1  UNL1        0.0278
     52 H          -6.9354    4.6034    2.1608 H       1  UNL1        0.0843
     53 H          -6.2634    6.2455    2.3027 H       1  UNL1        0.0843
     54 H          -7.8012    8.1142    3.6311 H       1  UNL1        0.0287
     55 H          -8.1144    7.1511    5.0949 H       1  UNL1        0.0287
     56 H          -6.7840    6.7012    4.0013 H       1  UNL1        0.0287
     57 H         -10.8443    6.1504    2.7703 H       1  UNL1        0.0287
     58 H         -10.4855    6.8294    4.3761 H       1  UNL1        0.0287
     59 H         -10.1723    7.7925    2.9123 H       1  UNL1        0.0287
     60 H          -7.7273    4.3962    3.8021 H       1  UNL1        0.0287
     61 H          -9.0576    4.8461    4.8957 H       1  UNL1        0.0287
     62 H          -9.4165    4.1671    3.2900 H       1  UNL1        0.0287
     63 H          -7.4827    3.8250   -0.1373 H       1  UNL1        0.2105
     64 N          -8.3209    6.1620    1.8502 N.4     1  UNL1        0.2328
     65 H          -8.9673    5.5634    1.3229 H       1  UNL1        0.2020
     66 H          -8.3343    7.1102    1.4566 H       1  UNL1        0.2020
@<TRIPOS>UNITY_ATOM_ATTR
64 1
charge 1
@<TRIPOS>BOND
     1     1     2    1
     2     1    35    1
     3     1    36    1
     4     1    37    1
     5     2     7   ar
     6     2     3   ar
     7     3     4   ar
     8     3    38    1
     9     4     5   ar
    10     4    39    1
    11     5     6   ar
    12     5     8    1
    13     6     7   ar
    14     6    40    1
    15     7    41    1
    16     8     9    2
    17     8    10    1
    18    10    11    1
    19    11    16   ar
    20    11    12   ar
    21    12    13   ar
    22    12    42    1
    23    13    14   ar
    24    13    43    1
    25    14    15   ar
    26    14    27    1
    27    15    16   ar
    28    15    44    1
    29    16    17    1
    30    17    18    1
    31    18    19    2
    32    18    20    1
    33    20    25   ar
    34    20    21   ar
    35    21    22   ar
    36    21    45    1
    37    22    23   ar
    38    22    46    1
    39    23    24   ar
    40    23    26    1
    41    24    25   ar
    42    24    47    1
    43    25    48    1
    44    26    49    1
    45    26    50    1
    46    26    51    1
    47    27    28    1
    48    27    29    1
    49    27    34    1
    50    29    52    1
    51    29    53    1
    52    29    64    1
    53    30    31    1
    54    30    32    1
    55    30    33    1
    56    30    64    1
    57    31    54    1
    58    31    55    1
    59    31    56    1
    60    32    57    1
    61    32    58    1
    62    32    59    1
    63    33    60    1
    64    33    61    1
    65    33    62    1
    66    34    63    1
    67    64    65    1
    68    64    66    1
