@<TRIPOS>MOLECULE
ZINC03830519
 66 67 0 0 0
SMALL
GASTEIGER

@<TRIPOS>ATOM
      1 C           2.2189    2.9090    3.0182 C.3     1  UNL1       -0.0572
      2 C           1.4343    1.7088    2.4845 C.3     1  UNL1       -0.0039
      3 C           1.6501    0.5074    3.4070 C.3     1  UNL1       -0.0572
      4 C          -0.0331    2.0488    2.4374 C.ar    1  UNL1        0.0501
      5 C          -0.7286    1.8862    1.2563 C.ar    1  UNL1        0.0079
      6 C          -2.0866    2.2081    1.2167 C.ar    1  UNL1       -0.0019
      7 C          -2.6917    2.6778    2.4008 C.ar    1  UNL1        0.0044
      8 C          -1.9091    2.8096    3.5466 C.ar    1  UNL1        0.0519
      9 N          -0.6298    2.4961    3.5263 N.ar    1  UNL1       -0.2550
     10 C          -2.5329    3.3154    4.8218 C.3     1  UNL1       -0.0037
     11 C          -2.3901    2.2547    5.9151 C.3     1  UNL1       -0.0572
     12 C          -1.8259    4.5991    5.2611 C.3     1  UNL1       -0.0572
     13 C          -4.1254    3.0295    2.4246 C.2     1  UNL1       -0.0538
     14 C          -4.9110    2.5469    3.3787 C.2     1  UNL1       -0.0552
     15 C          -6.3745    2.9059    3.4030 C.3     1  UNL1        0.0760
     16 H          -6.5903    3.4910    4.2969 H       1  UNL1        0.0638
     17 C          -7.2133    1.6264    3.4162 C.3     1  UNL1        0.0032
     18 C          -8.6924    1.9877    3.5664 C.3     1  UNL1        0.0629
     19 H          -8.9775    2.6862    2.7797 H       1  UNL1        0.0598
     20 C          -9.5411    0.7196    3.4547 C.3     1  UNL1        0.0130
     21 C         -11.0019    1.0890    3.4795 C.2     1  UNL1        0.0442
     22 O         -11.3305    2.2477    3.5767 O.co2   1  UNL1       -0.5497
     23 O          -8.9074    2.5939    4.8425 O.3     1  UNL1       -0.3913
     24 O          -6.6958    3.6741    2.2417 O.3     1  UNL1       -0.3877
     25 C          -2.8702    2.0553   -0.0313 C.ar    1  UNL1       -0.0167
     26 C          -2.5760    2.8443   -1.1431 C.ar    1  UNL1       -0.0513
     27 C          -3.3056    2.6954   -2.3042 C.ar    1  UNL1       -0.0259
     28 C          -4.3361    1.7708   -2.3638 C.ar    1  UNL1        0.1234
     29 C          -4.6353    0.9879   -1.2602 C.ar    1  UNL1       -0.0259
     30 C          -3.9082    1.1262   -0.0962 C.ar    1  UNL1       -0.0513
     31 F          -5.0510    1.6318   -3.5017 F       1  UNL1       -0.2055
     32 C          -0.0296    1.3736    0.0236 C.3     1  UNL1        0.0746
     33 O           0.6185    2.4590   -0.6427 O.3     1  UNL1       -0.3783
     34 C           1.3149    2.0789   -1.8311 C.3     1  UNL1        0.0369
     35 H           1.8703    3.1540    4.0214 H       1  UNL1        0.0236
     36 H           3.2803    2.6631    3.0523 H       1  UNL1        0.0236
     37 H           2.0652    3.7649    2.3610 H       1  UNL1        0.0236
     38 H           1.7829    1.4638    1.4813 H       1  UNL1        0.0359
     39 H           1.0911   -0.3476    3.0268 H       1  UNL1        0.0236
     40 H           2.7114    0.2615    3.4411 H       1  UNL1        0.0236
     41 H           1.3014    0.7524    4.4103 H       1  UNL1        0.0236
     42 H          -3.5896    3.5223    4.6521 H       1  UNL1        0.0359
     43 H          -2.8413    2.6205    6.8374 H       1  UNL1        0.0236
     44 H          -2.8937    1.3401    5.6021 H       1  UNL1        0.0236
     45 H          -1.3334    2.0477    6.0847 H       1  UNL1        0.0236
     46 H          -1.9277    5.3548    4.4822 H       1  UNL1        0.0236
     47 H          -2.2771    4.9650    6.1834 H       1  UNL1        0.0236
     48 H          -0.7693    4.3922    5.4307 H       1  UNL1        0.0236
     49 H          -4.5346    3.6795    1.6654 H       1  UNL1        0.0622
     50 H          -4.5018    1.8969    4.1379 H       1  UNL1        0.0598
     51 H          -7.0646    1.0848    2.4819 H       1  UNL1        0.0318
     52 H          -6.9057    0.9989    4.2527 H       1  UNL1        0.0318
     53 H          -9.3111    0.2098    2.5191 H       1  UNL1        0.0350
     54 H          -9.3191    0.0588    4.2927 H       1  UNL1        0.0350
     55 H          -8.6745    2.0278    5.5911 H       1  UNL1        0.2098
     56 H          -6.5285    3.2147    1.4074 H       1  UNL1        0.2102
     57 H          -1.7758    3.5681   -1.0961 H       1  UNL1        0.0624
     58 H          -3.0759    3.3030   -3.1669 H       1  UNL1        0.0646
     59 H          -5.4393    0.2686   -1.3114 H       1  UNL1        0.0646
     60 H          -4.1426    0.5162    0.7636 H       1  UNL1        0.0624
     61 H          -0.7602    0.9203   -0.6464 H       1  UNL1        0.0610
     62 H           0.7123    0.6281    0.3100 H       1  UNL1        0.0610
     63 H           2.0847    1.3481   -1.5831 H       1  UNL1        0.0524
     64 H           0.6122    1.6402   -2.5395 H       1  UNL1        0.0524
     65 H           1.7792    2.9584   -2.2772 H       1  UNL1        0.0524
     66 O         -11.9380    0.1309    3.3938 O.co2   1  UNL1       -0.5497
@<TRIPOS>UNITY_ATOM_ATTR
66 1
charge -1
@<TRIPOS>BOND
     1     1     2    1
     2     1    35    1
     3     1    36    1
     4     1    37    1
     5     2     3    1
     6     2     4    1
     7     2    38    1
     8     3    39    1
     9     3    40    1
    10     3    41    1
    11     4     9   ar
    12     4     5   ar
    13     5     6   ar
    14     5    32    1
    15     6     7   ar
    16     6    25    1
    17     7     8   ar
    18     7    13    1
    19     8     9   ar
    20     8    10    1
    21    10    11    1
    22    10    12    1
    23    10    42    1
    24    11    43    1
    25    11    44    1
    26    11    45    1
    27    12    46    1
    28    12    47    1
    29    12    48    1
    30    13    14    2
    31    13    49    1
    32    14    15    1
    33    14    50    1
    34    15    16    1
    35    15    17    1
    36    15    24    1
    37    17    18    1
    38    17    51    1
    39    17    52    1
    40    18    19    1
    41    18    20    1
    42    18    23    1
    43    20    21    1
    44    20    53    1
    45    20    54    1
    46    21    22   ar
    47    21    66   ar
    48    23    55    1
    49    24    56    1
    50    25    30   ar
    51    25    26   ar
    52    26    27   ar
    53    26    57    1
    54    27    28   ar
    55    27    58    1
    56    28    29   ar
    57    28    31    1
    58    29    30   ar
    59    29    59    1
    60    30    60    1
    61    32    33    1
    62    32    61    1
    63    32    62    1
    64    33    34    1
    65    34    63    1
    66    34    64    1
    67    34    65    1
