@<TRIPOS>MOLECULE
ZINC01542931
 52 54 0 0 0
SMALL
GASTEIGER

@<TRIPOS>ATOM
      1 C           9.2205    0.8840   12.3105 C.3     1  UNL1        0.0181
      2 N           8.1903    0.4671   11.3560 N.ar    1  UNL1       -0.2796
      3 C           8.4832    0.4105   10.0030 C.ar    1  UNL1        0.1678
      4 C           7.4876    0.0179    9.1173 C.ar    1  UNL1        0.1514
      5 C           6.2136   -0.3218    9.6213 C.ar    1  UNL1        0.2822
      6 O           5.3257   -0.6735    8.8655 O.2     1  UNL1       -0.2652
      7 N           5.9891   -0.2466   10.9497 N.ar    1  UNL1       -0.2622
      8 C           6.9602    0.1400   11.7949 C.ar    1  UNL1        0.3331
      9 O           6.7218    0.1954   12.9860 O.2     1  UNL1       -0.2462
     10 C           4.6674   -0.5918   11.4789 C.3     1  UNL1        0.0196
     11 N           8.0553    0.0493    7.8593 N.ar    1  UNL1       -0.3244
     12 C           9.3311    0.4542    8.0131 C.ar    1  UNL1        0.0989
     13 N           9.5773    0.6657    9.2809 N.ar    1  UNL1       -0.2177
     14 C           7.3941   -0.2875    6.5961 C.3     1  UNL1        0.0297
     15 C           6.6420    0.9374    6.0717 C.3     1  UNL1        0.0054
     16 C           5.9515    0.5856    4.7525 C.3     1  UNL1       -0.0319
     17 C           4.5525    1.4605    2.9805 C.3     1  UNL1       -0.0028
     18 C           3.8131    2.7064    2.4886 C.3     1  UNL1        0.1199
     19 H           4.5269    3.5160    2.3363 H       1  UNL1        0.0698
     20 C           3.1186    2.3974    1.1874 C.ar    1  UNL1       -0.0072
     21 C           3.7373    2.6942   -0.0120 C.ar    1  UNL1       -0.0141
     22 C           3.0997    2.4111   -1.2116 C.ar    1  UNL1        0.1207
     23 C           1.8412    1.8296   -1.2060 C.ar    1  UNL1        0.0213
     24 C           1.2228    1.5324   -0.0014 C.ar    1  UNL1        0.1207
     25 C           1.8623    1.8223    1.1956 C.ar    1  UNL1       -0.0141
     26 O          -0.0110    0.9628    0.0073 O.3     1  UNL1       -0.5066
     27 O           3.7082    2.7040   -2.3909 O.3     1  UNL1       -0.5066
     28 O           2.8453    3.1016    3.4629 O.3     1  UNL1       -0.3819
     29 H           9.1781    1.9652   12.4418 H       1  UNL1        0.0458
     30 H           9.0473    0.3945   13.2689 H       1  UNL1        0.0458
     31 H          10.2028    0.6024   11.9310 H       1  UNL1        0.0458
     32 H           4.6679   -0.4749   12.5626 H       1  UNL1        0.0458
     33 H           3.9176    0.0682   11.0426 H       1  UNL1        0.0458
     34 H           4.4331   -1.6256   11.2251 H       1  UNL1        0.0458
     35 H          10.0430    0.5842    7.2115 H       1  UNL1        0.1029
     36 H           6.6900   -1.1031    6.7608 H       1  UNL1        0.0494
     37 H           8.1420   -0.5951    5.8653 H       1  UNL1        0.0494
     38 H           7.3461    1.7530    5.9071 H       1  UNL1        0.0334
     39 H           5.8941    1.2449    6.8026 H       1  UNL1        0.0334
     40 H           5.2474   -0.2301    4.9171 H       1  UNL1        0.0814
     41 H           6.6994    0.2780    4.0216 H       1  UNL1        0.0814
     42 H           3.8387    0.6509    3.1329 H       1  UNL1        0.0843
     43 H           5.2906    1.1590    2.2374 H       1  UNL1        0.0843
     44 H           4.7177    3.1472   -0.0158 H       1  UNL1        0.0658
     45 H           1.3432    1.6089   -2.1386 H       1  UNL1        0.0691
     46 H           1.3791    1.5950    2.1343 H       1  UNL1        0.0658
     47 H           0.0021   -0.0041    0.0020 H       1  UNL1        0.2921
     48 H           3.5139    3.5907   -2.7242 H       1  UNL1        0.2921
     49 H           2.1769    2.4281    3.6491 H       1  UNL1        0.2105
     50 N           5.2291    1.7711    4.2539 N.4     1  UNL1        0.2291
     51 H           5.8969    2.5367    4.1047 H       1  UNL1        0.2014
     52 H           4.5291    2.0580    4.9482 H       1  UNL1        0.2014
@<TRIPOS>UNITY_ATOM_ATTR
50 1
charge 1
@<TRIPOS>BOND
     1     1     2    1
     2     1    29    1
     3     1    30    1
     4     1    31    1
     5     2     8   ar
     6     2     3   ar
     7     3    13   ar
     8     3     4   ar
     9     4     5   ar
    10     4    11   ar
    11     5     6    2
    12     5     7   ar
    13     7     8   ar
    14     7    10    1
    15     8     9    2
    16    10    32    1
    17    10    33    1
    18    10    34    1
    19    11    12   ar
    20    11    14    1
    21    12    13   ar
    22    12    35    1
    23    14    15    1
    24    14    36    1
    25    14    37    1
    26    15    16    1
    27    15    38    1
    28    15    39    1
    29    16    40    1
    30    16    41    1
    31    16    50    1
    32    17    18    1
    33    17    42    1
    34    17    43    1
    35    17    50    1
    36    18    19    1
    37    18    20    1
    38    18    28    1
    39    20    25   ar
    40    20    21   ar
    41    21    22   ar
    42    21    44    1
    43    22    23   ar
    44    22    27    1
    45    23    24   ar
    46    23    45    1
    47    24    25   ar
    48    24    26    1
    49    25    46    1
    50    26    47    1
    51    27    48    1
    52    28    49    1
    53    50    51    1
    54    50    52    1
