@<TRIPOS>MOLECULE
ZINC03830764
 44 47 0 0 0
SMALL
GASTEIGER

@<TRIPOS>ATOM
      1 C           1.2499    3.6755    1.4259 C.3     1  UNL1       -0.0569
      2 C           1.1594    3.1086    0.0077 C.3     1  UNL1       -0.0030
      3 C          -0.1823    3.4432   -0.6460 C.3     1  UNL1       -0.0445
      4 C          -0.2509    4.8913   -1.0944 C.3     1  UNL1       -0.0454
      5 C           0.8778    5.1652   -2.0903 C.3     1  UNL1       -0.0125
      6 H           0.8038    4.4487   -2.9084 H       1  UNL1        0.0352
      7 C           0.7832    6.5598   -2.6417 C.ar    1  UNL1       -0.0406
      8 C          -0.4743    7.0561   -2.9578 C.ar    1  UNL1       -0.0546
      9 C          -0.6173    8.3202   -3.4887 C.ar    1  UNL1       -0.0199
     10 C           0.5065    9.1039   -3.7083 C.ar    1  UNL1        0.1171
     11 C           1.7594    8.6112   -3.3877 C.ar    1  UNL1       -0.0167
     12 C           1.9018    7.3391   -2.8496 C.ar    1  UNL1       -0.0405
     13 C           3.2948    6.8739   -2.5158 C.3     1  UNL1       -0.0270
     14 C           3.3384    5.3593   -2.3170 C.3     1  UNL1       -0.0454
     15 C           2.2064    4.9684   -1.3671 C.3     1  UNL1       -0.0305
     16 H           2.2260    5.6449   -0.5127 H       1  UNL1        0.0310
     17 C           2.3518    3.5569   -0.8599 C.3     1  UNL1       -0.0298
     18 H           3.2733    3.4700   -0.2844 H       1  UNL1        0.0310
     19 C           2.3639    2.5300   -2.0074 C.3     1  UNL1       -0.0470
     20 C           2.0284    1.1964   -1.3009 C.3     1  UNL1       -0.0261
     21 C           1.2864    1.5618   -0.0018 C.3     1  UNL1        0.0609
     22 H           1.8586    1.2278    0.8637 H       1  UNL1        0.0599
     23 O          -0.0110    0.9628    0.0073 O.3     1  UNL1       -0.3912
     24 O           0.3775   10.3497   -4.2358 O.3     1  UNL1       -0.5068
     25 H           2.2009    3.3859    1.8730 H       1  UNL1        0.0236
     26 H           1.1826    4.7628    1.3875 H       1  UNL1        0.0236
     27 H           0.4307    3.2818    2.0275 H       1  UNL1        0.0236
     28 H          -0.3088    2.8267   -1.5359 H       1  UNL1        0.0272
     29 H          -0.9859    3.2222    0.0565 H       1  UNL1        0.0272
     30 H          -0.1319    5.5291   -0.2186 H       1  UNL1        0.0271
     31 H          -1.2136    5.0891   -1.5656 H       1  UNL1        0.0271
     32 H          -1.3488    6.4461   -2.7858 H       1  UNL1        0.0622
     33 H          -1.5991    8.6989   -3.7321 H       1  UNL1        0.0654
     34 H           2.6341    9.2216   -3.5571 H       1  UNL1        0.0657
     35 H           3.6255    7.3641   -1.6002 H       1  UNL1        0.0313
     36 H           3.9672    7.1470   -3.3291 H       1  UNL1        0.0313
     37 H           4.2969    5.0728   -1.8842 H       1  UNL1        0.0271
     38 H           3.2035    4.8581   -3.2755 H       1  UNL1        0.0271
     39 H           1.6030    2.7738   -2.7488 H       1  UNL1        0.0269
     40 H           3.3493    2.4843   -2.4711 H       1  UNL1        0.0269
     41 H           2.9459    0.6562   -1.0676 H       1  UNL1        0.0290
     42 H           1.3876    0.5871   -1.9383 H       1  UNL1        0.0290
     43 H           0.0021   -0.0041    0.0020 H       1  UNL1        0.2098
     44 H           0.2644   11.0468   -3.5752 H       1  UNL1        0.2921
@<TRIPOS>BOND
     1     1     2    1
     2     1    25    1
     3     1    26    1
     4     1    27    1
     5     2    17    1
     6     2    21    1
     7     2     3    1
     8     3     4    1
     9     3    28    1
    10     3    29    1
    11     4     5    1
    12     4    30    1
    13     4    31    1
    14     5     6    1
    15     5    15    1
    16     5     7    1
    17     7    12   ar
    18     7     8   ar
    19     8     9   ar
    20     8    32    1
    21     9    10   ar
    22     9    33    1
    23    10    11   ar
    24    10    24    1
    25    11    12   ar
    26    11    34    1
    27    12    13    1
    28    13    14    1
    29    13    35    1
    30    13    36    1
    31    14    15    1
    32    14    37    1
    33    14    38    1
    34    15    16    1
    35    15    17    1
    36    17    18    1
    37    17    19    1
    38    19    20    1
    39    19    39    1
    40    19    40    1
    41    20    21    1
    42    20    41    1
    43    20    42    1
    44    21    22    1
    45    21    23    1
    46    23    43    1
    47    24    44    1
