@<TRIPOS>MOLECULE
ZINC00000609
 29 30 0 0 0
SMALL
GASTEIGER

@<TRIPOS>ATOM
      1 C           0.7488   -2.0380   -1.1425 C.3     1  UNL1       -0.0189
      2 C           0.7138   -0.5089   -1.1812 C.3     1  UNL1        0.0056
      3 H           0.1990   -0.1794   -2.0837 H       1  UNL1        0.0877
      4 C           2.1447    0.0355   -1.1801 C.3     1  UNL1        0.1259
      5 H           2.6757   -0.3385   -0.3048 H       1  UNL1        0.0703
      6 O           2.1057    1.4646   -1.1406 O.3     1  UNL1       -0.3611
      7 C           1.4204    1.9905   -0.0008 C.3     1  UNL1        0.0885
      8 C          -0.0179    1.4659    0.0101 C.3     1  UNL1       -0.0093
      9 C           2.8550   -0.4141   -2.4309 C.ar    1  UNL1       -0.0135
     10 C           2.7171    0.3080   -3.6016 C.ar    1  UNL1       -0.0559
     11 C           3.3722   -0.1020   -4.7477 C.ar    1  UNL1       -0.0614
     12 C           4.1579   -1.2391   -4.7255 C.ar    1  UNL1       -0.0617
     13 C           4.2916   -1.9642   -3.5562 C.ar    1  UNL1       -0.0614
     14 C           3.6400   -1.5518   -2.4089 C.ar    1  UNL1       -0.0559
     15 H          -0.2702   -2.4248   -1.1393 H       1  UNL1        0.0285
     16 H           1.2766   -2.4116   -2.0199 H       1  UNL1        0.0285
     17 H           1.2651   -2.3669   -0.2406 H       1  UNL1        0.0285
     18 H           1.4104    3.0792   -0.0525 H       1  UNL1        0.0614
     19 H           1.9304    1.6734    0.9088 H       1  UNL1        0.0614
     20 H          -0.5439    1.8276   -0.8734 H       1  UNL1        0.0837
     21 H          -0.5269    1.8181    0.9073 H       1  UNL1        0.0837
     22 H           2.1003    1.1943   -3.6198 H       1  UNL1        0.0621
     23 H           3.2681    0.4647   -5.6612 H       1  UNL1        0.0618
     24 H           4.6676   -1.5609   -5.6217 H       1  UNL1        0.0618
     25 H           4.9054   -2.8526   -3.5388 H       1  UNL1        0.0618
     26 H           3.7444   -2.1182   -1.4953 H       1  UNL1        0.0621
     27 N          -0.0016   -0.0093    0.0083 N.4     1  UNL1        0.2327
     28 H           0.4727   -0.3444    0.8551 H       1  UNL1        0.2018
     29 H          -0.9668   -0.3592   -0.0045 H       1  UNL1        0.2018
@<TRIPOS>UNITY_ATOM_ATTR
27 1
charge 1
@<TRIPOS>BOND
     1     1     2    1
     2     1    15    1
     3     1    16    1
     4     1    17    1
     5     2     3    1
     6     2     4    1
     7     2    27    1
     8     4     5    1
     9     4     6    1
    10     4     9    1
    11     6     7    1
    12     7     8    1
    13     7    18    1
    14     7    19    1
    15     8    20    1
    16     8    21    1
    17     8    27    1
    18     9    14   ar
    19     9    10   ar
    20    10    11   ar
    21    10    22    1
    22    11    12   ar
    23    11    23    1
    24    12    13   ar
    25    12    24    1
    26    13    14   ar
    27    13    25    1
    28    14    26    1
    29    27    28    1
    30    27    29    1
