@<TRIPOS>MOLECULE
ZINC00608359
 58 60 0 0 0
SMALL
GASTEIGER

@<TRIPOS>ATOM
      1 C          -3.6627    3.6262    4.5465 C.3     1  UNL1       -0.0307
      2 C          -2.4203    2.7661    4.7865 C.3     1  UNL1        0.0870
      3 O          -1.8623    2.3744    3.5306 O.3     1  UNL1       -0.4886
      4 C          -0.7449    1.6000    3.5661 C.ar    1  UNL1        0.1619
      5 C          -0.2012    1.2209    4.7829 C.ar    1  UNL1       -0.0160
      6 C           0.9380    0.4384    4.8171 C.ar    1  UNL1       -0.0545
      7 C           1.5339    0.0277    3.6392 C.ar    1  UNL1       -0.0379
      8 C           0.9932    0.3977    2.4218 C.ar    1  UNL1       -0.0127
      9 C          -0.1484    1.1819    2.3804 C.ar    1  UNL1        0.1622
     10 O          -0.6816    1.5467    1.1837 O.3     1  UNL1       -0.4886
     11 C          -0.0127    1.0858    0.0080 C.3     1  UNL1        0.0870
     12 C          -0.7527    1.5927   -1.2315 C.3     1  UNL1       -0.0307
     13 C           2.7758   -0.8248    3.6823 C.3     1  UNL1        0.0155
     14 C           3.9939    0.0625    3.6956 C.ar    1  UNL1        0.0534
     15 C           4.5935    0.4511    2.4875 C.ar    1  UNL1        0.0074
     16 C           4.0932    0.0370    1.2424 C.ar    1  UNL1       -0.0069
     17 C           4.7151    0.4439    0.0981 C.ar    1  UNL1        0.1625
     18 C           5.8478    1.2712    0.1481 C.ar    1  UNL1        0.1625
     19 C           6.3503    1.6991    1.3438 C.ar    1  UNL1       -0.0085
     20 C           5.7363    1.2922    2.5365 C.ar    1  UNL1       -0.0110
     21 C           6.2188    1.6860    3.7983 C.ar    1  UNL1       -0.0357
     22 C           5.5681    1.2497    4.9121 C.ar    1  UNL1        0.0285
     23 N           4.4989    0.4686    4.8374 N.ar    1  UNL1       -0.2589
     24 O           6.4453    1.6609   -1.0085 O.3     1  UNL1       -0.4886
     25 C           7.5943    2.5026   -0.8936 C.3     1  UNL1        0.0870
     26 C           8.1252    2.8344   -2.2896 C.3     1  UNL1       -0.0307
     27 O           4.2306    0.0429   -1.1070 O.3     1  UNL1       -0.4886
     28 C           3.0752   -0.7979   -1.0945 C.3     1  UNL1        0.0870
     29 C           2.6801   -1.1431   -2.5317 C.3     1  UNL1       -0.0307
     30 H          -4.3994    3.0518    3.9850 H       1  UNL1        0.0262
     31 H          -4.0883    3.9250    5.5045 H       1  UNL1        0.0262
     32 H          -3.3854    4.5147    3.9792 H       1  UNL1        0.0262
     33 H          -2.6976    1.8776    5.3538 H       1  UNL1        0.0694
     34 H          -1.6836    3.3405    5.3481 H       1  UNL1        0.0694
     35 H          -0.6648    1.5403    5.7045 H       1  UNL1        0.0655
     36 H           1.3631    0.1470    5.7662 H       1  UNL1        0.0622
     37 H           1.4609    0.0758    1.5031 H       1  UNL1        0.0658
     38 H           0.0021   -0.0041    0.0020 H       1  UNL1        0.0694
     39 H           1.0099    1.4631    0.0003 H       1  UNL1        0.0694
     40 H          -0.7675    2.6825   -1.2255 H       1  UNL1        0.0262
     41 H          -0.2425    1.2411   -2.1283 H       1  UNL1        0.0262
     42 H          -1.7753    1.2154   -1.2238 H       1  UNL1        0.0262
     43 H           2.7639   -1.4389    4.5827 H       1  UNL1        0.0377
     44 H           2.8051   -1.4689    2.8035 H       1  UNL1        0.0377
     45 H           3.2223   -0.5996    1.1910 H       1  UNL1        0.0662
     46 H           7.2225    2.3355    1.3707 H       1  UNL1        0.0661
     47 H           7.0877    2.3219    3.8817 H       1  UNL1        0.0639
     48 H           5.9333    1.5478    5.8837 H       1  UNL1        0.0830
     49 H           7.3196    3.4244   -0.3808 H       1  UNL1        0.0694
     50 H           8.3673    1.9865   -0.3241 H       1  UNL1        0.0694
     51 H           7.3522    3.3505   -2.8591 H       1  UNL1        0.0262
     52 H           9.0016    3.4764   -2.2019 H       1  UNL1        0.0262
     53 H           8.3999    1.9126   -2.8024 H       1  UNL1        0.0262
     54 H           3.2988   -1.7147   -0.5489 H       1  UNL1        0.0694
     55 H           2.2517   -0.2764   -0.6066 H       1  UNL1        0.0694
     56 H           2.4565   -0.2264   -3.0773 H       1  UNL1        0.0262
     57 H           3.5036   -1.6646   -3.0196 H       1  UNL1        0.0262
     58 H           1.7988   -1.7844   -2.5222 H       1  UNL1        0.0262
@<TRIPOS>BOND
     1     1     2    1
     2     1    30    1
     3     1    31    1
     4     1    32    1
     5     2     3    1
     6     2    33    1
     7     2    34    1
     8     3     4    1
     9     4     9   ar
    10     4     5   ar
    11     5     6   ar
    12     5    35    1
    13     6     7   ar
    14     6    36    1
    15     7     8   ar
    16     7    13    1
    17     8     9   ar
    18     8    37    1
    19     9    10    1
    20    10    11    1
    21    11    12    1
    22    11    38    1
    23    11    39    1
    24    12    40    1
    25    12    41    1
    26    12    42    1
    27    13    14    1
    28    13    43    1
    29    13    44    1
    30    14    23   ar
    31    14    15   ar
    32    15    20   ar
    33    15    16   ar
    34    16    17   ar
    35    16    45    1
    36    17    18   ar
    37    17    27    1
    38    18    19   ar
    39    18    24    1
    40    19    20   ar
    41    19    46    1
    42    20    21   ar
    43    21    22   ar
    44    21    47    1
    45    22    23   ar
    46    22    48    1
    47    24    25    1
    48    25    26    1
    49    25    49    1
    50    25    50    1
    51    26    51    1
    52    26    52    1
    53    26    53    1
    54    27    28    1
    55    28    29    1
    56    28    54    1
    57    28    55    1
    58    29    56    1
    59    29    57    1
    60    29    58    1
