@<TRIPOS>MOLECULE
ZINC01530628
 38 37 0 0 0
SMALL
GASTEIGER

@<TRIPOS>ATOM
      1 C          -0.6410   -2.3437    0.1147 C.3     1  UNL1       -0.0410
      2 C          -1.1855   -0.9145    0.1561 C.3     1  UNL1        0.0549
      3 O          -0.1023    0.0113    0.0489 O.3     1  UNL1       -0.3005
      4 P          -0.2955    1.6050    0.1709 P.3     1  UNL1        0.3914
      5 O          -1.2994    2.0574   -0.8181 O.2     1  UNL1       -0.2458
      6 O           1.1084    2.3393   -0.1151 O.3     1  UNL1       -0.3005
      7 C           1.2437    3.7602   -0.1842 C.3     1  UNL1        0.0549
      8 C           2.7032    4.1203   -0.4691 C.3     1  UNL1       -0.0410
      9 S          -0.9608    2.0887    2.1249 S.3     1  UNL1       -0.0359
     10 C           0.2782    1.3294    3.2107 C.3     1  UNL1        0.0449
     11 C           1.5580    2.1675    3.1885 C.3     1  UNL1       -0.0211
     12 N           2.5534    1.5651    4.0853 N.4     1  UNL1        0.2375
     13 C           2.8546    0.1994    3.6358 C.3     1  UNL1       -0.0418
     14 C           3.7822    2.3698    4.0639 C.3     1  UNL1       -0.0418
     15 C           2.0189    1.5238    5.4530 C.3     1  UNL1       -0.0418
     16 H          -0.1165   -2.5055   -0.8271 H       1  UNL1        0.0252
     17 H           0.0489   -2.4938    0.9451 H       1  UNL1        0.0252
     18 H          -1.4672   -3.0498    0.1964 H       1  UNL1        0.0252
     19 H          -1.7100   -0.7526    1.0978 H       1  UNL1        0.0562
     20 H          -1.8754   -0.7643   -0.6744 H       1  UNL1        0.0562
     21 H           0.6113    4.1470   -0.9833 H       1  UNL1        0.0562
     22 H           0.9395    4.2007    0.7653 H       1  UNL1        0.0562
     23 H           3.3355    3.7335    0.3300 H       1  UNL1        0.0252
     24 H           3.0074    3.6798   -1.4186 H       1  UNL1        0.0252
     25 H           2.8064    5.2042   -0.5218 H       1  UNL1        0.0252
     26 H          -0.1093    1.2848    4.2286 H       1  UNL1        0.0434
     27 H           0.4983    0.3207    2.8612 H       1  UNL1        0.0434
     28 H           1.9547    2.1981    2.1737 H       1  UNL1        0.0823
     29 H           1.3346    3.1808    3.5220 H       1  UNL1        0.0823
     30 H           3.2512    0.2300    2.6210 H       1  UNL1        0.0778
     31 H           3.5932   -0.2476    4.3013 H       1  UNL1        0.0778
     32 H           1.9428   -0.3977    3.6517 H       1  UNL1        0.0778
     33 H           3.5588    3.3832    4.3974 H       1  UNL1        0.0778
     34 H           4.5208    1.9229    4.7294 H       1  UNL1        0.0778
     35 H           4.1789    2.4004    3.0491 H       1  UNL1        0.0778
     36 H           1.1071    0.9268    5.4688 H       1  UNL1        0.0778
     37 H           2.7575    1.0769    6.1184 H       1  UNL1        0.0778
     38 H           1.7954    2.5372    5.7865 H       1  UNL1        0.0778
@<TRIPOS>UNITY_ATOM_ATTR
12 1
charge 1
@<TRIPOS>BOND
     1     1     2    1
     2     1    16    1
     3     1    17    1
     4     1    18    1
     5     2     3    1
     6     2    19    1
     7     2    20    1
     8     3     4    1
     9     4     5    2
    10     4     6    1
    11     4     9    1
    12     6     7    1
    13     7     8    1
    14     7    21    1
    15     7    22    1
    16     8    23    1
    17     8    24    1
    18     8    25    1
    19     9    10    1
    20    10    11    1
    21    10    26    1
    22    10    27    1
    23    11    12    1
    24    11    28    1
    25    11    29    1
    26    12    13    1
    27    12    14    1
    28    12    15    1
    29    13    30    1
    30    13    31    1
    31    13    32    1
    32    14    33    1
    33    14    34    1
    34    14    35    1
    35    15    36    1
    36    15    37    1
    37    15    38    1
