@<TRIPOS>MOLECULE
ZINC00057623
 24 24 0 0 0
SMALL
GASTEIGER

@<TRIPOS>ATOM
      1 C           2.3989    0.0335   -0.0207 C.ar    1  UNL1       -0.0523
      2 C           1.2127   -0.6772   -0.0132 C.ar    1  UNL1       -0.0162
      3 C           0.0021   -0.0041    0.0020 C.ar    1  UNL1        0.1582
      4 C          -0.0168    1.3877    0.0097 C.ar    1  UNL1        0.1586
      5 C           1.1751    2.0936    0.0021 C.ar    1  UNL1       -0.0107
      6 C           2.3802    1.4154   -0.0131 C.ar    1  UNL1       -0.0104
      7 C           3.6758    2.1850   -0.0213 C.3     1  UNL1        0.1197
      8 H           3.4918    3.2027   -0.3656 H       1  UNL1        0.0698
      9 C           4.2558    2.2224    1.3940 C.3     1  UNL1       -0.0045
     10 O           4.6041    1.5455   -0.8997 O.3     1  UNL1       -0.3819
     11 O          -1.2028    2.0531    0.0189 O.3     1  UNL1       -0.5033
     12 O          -1.1654   -0.7015    0.0090 O.3     1  UNL1       -0.5033
     13 H           3.3421   -0.4925   -0.0329 H       1  UNL1        0.0622
     14 H           1.2301   -1.7570   -0.0188 H       1  UNL1        0.0655
     15 H           1.1632    3.1735    0.0080 H       1  UNL1        0.0659
     16 H           3.5131    2.6291    2.0804 H       1  UNL1        0.0842
     17 H           4.5224    1.2121    1.7043 H       1  UNL1        0.0842
     18 H           5.2464    3.9968    1.0646 H       1  UNL1        0.1995
     19 H           5.8562    3.1127    2.3344 H       1  UNL1        0.1995
     20 H           4.8149    0.6344   -0.6535 H       1  UNL1        0.2105
     21 H          -1.5416    2.2408    0.9049 H       1  UNL1        0.2923
     22 H          -1.5112   -0.8984   -0.8724 H       1  UNL1        0.2923
     23 N           5.4689    3.0588    1.3938 N.4     1  UNL1        0.2206
     24 H           6.1670    2.6408    0.7675 H       1  UNL1        0.1995
@<TRIPOS>UNITY_ATOM_ATTR
23 1
charge 1
@<TRIPOS>BOND
     1     1     6   ar
     2     1     2   ar
     3     1    13    1
     4     2     3   ar
     5     2    14    1
     6     3     4   ar
     7     3    12    1
     8     4     5   ar
     9     4    11    1
    10     5     6   ar
    11     5    15    1
    12     6     7    1
    13     7     8    1
    14     7     9    1
    15     7    10    1
    16     9    16    1
    17     9    17    1
    18     9    23    1
    19    10    20    1
    20    11    21    1
    21    12    22    1
    22    18    23    1
    23    19    23    1
    24    23    24    1
