@<TRIPOS>MOLECULE
ZINC04534031
 54 57 0 0 0
SMALL
GASTEIGER

@<TRIPOS>ATOM
      1 C           5.2884    0.0437   -5.1643 C.3     1  UNL1       -0.0486
      2 C           4.1885   -0.2918   -4.1551 C.3     1  UNL1        0.0366
      3 CA          4.7725   -0.5513   -2.7389 C.3     1  UNL1        0.0807
      4 HA          4.0575   -1.1375   -2.1616 H       1  UNL1        0.0576
      5 N           5.0500    0.6999   -2.0274 N.am    1  UNL1       -0.2761
      6 C           4.2250    1.8653   -2.4274 C.3     1  UNL1        0.1003
      7 H           4.7602    2.7831   -2.6710 H       1  UNL1        0.0640
      8 S           3.1414    1.2189   -3.7637 S.3     1  UNL1       -0.1275
      9 CA          3.6014    1.8033   -1.0317 C.3     1  UNL1        0.1277
     10 HA          3.7201    2.7217   -0.4568 H       1  UNL1        0.0622
     11 C           4.6420    0.7487   -0.7178 C.2     1  UNL1        0.2401
     12 O           4.9813    0.1742    0.2950 O.2     1  UNL1       -0.2734
     13 N           2.2267    1.2969   -1.0218 N.am    1  UNL1       -0.2999
     14 C           1.4020    1.6060   -0.0016 C.2     1  UNL1        0.2386
     15 O           1.7979    2.3035    0.9082 O.2     1  UNL1       -0.2734
     16 CA         -0.0120    1.0851    0.0086 C.3     1  UNL1        0.1261
     17 HA          0.0022   -0.0048    0.0025 H       1  UNL1        0.0646
     18 C          -0.7403    1.5848   -1.2125 C.ar    1  UNL1       -0.0184
     19 C          -1.2552    2.8674   -1.2335 C.ar    1  UNL1       -0.0563
     20 C          -1.9186    3.3276   -2.3556 C.ar    1  UNL1       -0.0614
     21 C          -2.0769    2.5012   -3.4524 C.ar    1  UNL1       -0.0617
     22 C          -1.5665    1.2167   -3.4294 C.ar    1  UNL1       -0.0614
     23 C          -0.8982    0.7585   -2.3094 C.ar    1  UNL1       -0.0563
     24 N          -0.6979    1.5578    1.2137 N.am    1  UNL1       -0.2836
     25 C          -1.7412    0.8645    1.7111 C.2     1  UNL1        0.3106
     26 O          -2.1710   -0.1009    1.1106 O.2     1  UNL1       -0.2521
     27 N          -2.3079    1.2417    2.8743 N.am    1  UNL1       -0.2084
     28 C          -1.9510    2.4412    3.6464 C.3     1  UNL1        0.0409
     29 C          -2.8937    2.3903    4.8644 C.3     1  UNL1        0.0294
     30 N          -3.6753    1.1626    4.6539 N.am    1  UNL1       -0.2974
     31 C          -3.2817    0.5805    3.5136 C.2     1  UNL1        0.3098
     32 O          -3.7642   -0.4543    3.0969 O.2     1  UNL1       -0.2522
     33 C           6.0526   -1.3355   -2.8715 C.2     1  UNL1        0.0635
     34 O           7.1175   -0.7811   -2.7353 O.co2   1  UNL1       -0.5478
     35 C           3.3321   -1.4657   -4.6341 C.3     1  UNL1       -0.0486
     36 H           5.9891   -0.7887   -5.2282 H       1  UNL1        0.0244
     37 H           4.8421    0.2189   -6.1432 H       1  UNL1        0.0244
     38 H           5.8174    0.9400   -4.8405 H       1  UNL1        0.0244
     39 H           1.9101    0.7391   -1.7494 H       1  UNL1        0.1496
     40 H          -1.1357    3.5115   -0.3748 H       1  UNL1        0.0621
     41 H          -2.3171    4.3312   -2.3737 H       1  UNL1        0.0618
     42 H          -2.5991    2.8591   -4.3274 H       1  UNL1        0.0618
     43 H          -1.6902    0.5710   -4.2862 H       1  UNL1        0.0618
     44 H          -0.4997   -0.2451   -2.2913 H       1  UNL1        0.0621
     45 H          -0.4012    2.3698    1.6537 H       1  UNL1        0.1513
     46 H          -0.9093    2.3958    3.9642 H       1  UNL1        0.0486
     47 H          -2.1343    3.3420    3.0606 H       1  UNL1        0.0486
     48 H          -3.5480    3.2619    4.8832 H       1  UNL1        0.0478
     49 H          -2.3193    2.3245    5.7884 H       1  UNL1        0.0478
     50 H          -4.3662    0.8276    5.2467 H       1  UNL1        0.1503
     51 H           2.5035   -1.6171   -3.9424 H       1  UNL1        0.0244
     52 H           2.9408   -1.2482   -5.6279 H       1  UNL1        0.0244
     53 H           3.9421   -2.3682   -4.6734 H       1  UNL1        0.0244
     54 OXT         6.0097   -2.6498   -3.1409 O.co2   1  UNL1       -0.5478
@<TRIPOS>UNITY_ATOM_ATTR
54 1
charge -1
@<TRIPOS>BOND
     1     1     2    1
     2     1    36    1
     3     1    37    1
     4     1    38    1
     5     2     8    1
     6     2     3    1
     7     2    35    1
     8     3     4    1
     9     3     5    1
    10     3    33    1
    11     5    11   am
    12     5     6    1
    13     6     7    1
    14     6     8    1
    15     6     9    1
    16     9    10    1
    17     9    11    1
    18     9    13    1
    19    11    12    2
    20    13    14   am
    21    13    39    1
    22    14    15    2
    23    14    16    1
    24    16    17    1
    25    16    18    1
    26    16    24    1
    27    18    23   ar
    28    18    19   ar
    29    19    20   ar
    30    19    40    1
    31    20    21   ar
    32    20    41    1
    33    21    22   ar
    34    21    42    1
    35    22    23   ar
    36    22    43    1
    37    23    44    1
    38    24    25   am
    39    24    45    1
    40    25    26    2
    41    25    27   am
    42    27    31   am
    43    27    28    1
    44    28    29    1
    45    28    46    1
    46    28    47    1
    47    29    30    1
    48    29    48    1
    49    29    49    1
    50    30    31   am
    51    30    50    1
    52    31    32    2
    53    33    34   ar
    54    33    54   ar
    55    35    51    1
    56    35    52    1
    57    35    53    1
