@<TRIPOS>MOLECULE
ZINC03831051
 29 28 0 0 0
SMALL
GASTEIGER

@<TRIPOS>ATOM
      1 C           2.6190   -0.4387   -2.7075 C.3     1  UNL1       -0.0226
      2 C           2.0496   -0.0538   -1.3405 C.3     1  UNL1        0.1396
      3 H           2.6162   -0.5561   -0.5564 H       1  UNL1        0.0785
      4 C           0.5820   -0.4790   -1.2614 C.3     1  UNL1        0.0069
      5 N           0.0837   -0.2668    0.1042 N.4     1  UNL1        0.2395
      6 C           0.1250    1.1665    0.4233 C.3     1  UNL1       -0.0417
      7 C           0.9278   -1.0044    1.0536 C.3     1  UNL1       -0.0417
      8 C          -1.3000   -0.7504    0.2011 C.3     1  UNL1       -0.0417
      9 O           2.1472    1.3840   -1.1630 O.3     1  UNL1       -0.4564
     10 C           3.2714    1.8534   -0.5995 C.2     1  UNL1        0.3044
     11 O           4.1450    1.0883   -0.2657 O.2     1  UNL1       -0.2512
     12 C           3.4441    3.3348   -0.3833 C.3     1  UNL1        0.0332
     13 H           2.0525    0.0635   -3.4916 H       1  UNL1        0.0267
     14 H           3.6646   -0.1359   -2.7639 H       1  UNL1        0.0267
     15 H           2.5457   -1.5181   -2.8407 H       1  UNL1        0.0267
     16 H           0.4949   -1.5343   -1.5200 H       1  UNL1        0.0851
     17 H          -0.0068    0.1160   -1.9595 H       1  UNL1        0.0851
     18 H           1.1615    1.4831    0.5397 H       1  UNL1        0.0778
     19 H          -0.3392    1.7321   -0.3846 H       1  UNL1        0.0778
     20 H          -0.4166    1.3478    1.3517 H       1  UNL1        0.0778
     21 H           0.5581   -0.8470    2.0668 H       1  UNL1        0.0778
     22 H           0.8972   -2.0679    0.8167 H       1  UNL1        0.0778
     23 H           1.9546   -0.6456    0.9816 H       1  UNL1        0.0778
     24 H          -1.9264   -0.2031   -0.5033 H       1  UNL1        0.0778
     25 H          -1.3307   -1.8139   -0.0357 H       1  UNL1        0.0778
     26 H          -1.6698   -0.5930    1.2144 H       1  UNL1        0.0778
     27 H           2.6503    3.7020    0.2673 H       1  UNL1        0.0342
     28 H           4.4116    3.5238    0.0819 H       1  UNL1        0.0342
     29 H           3.3952    3.8502   -1.3425 H       1  UNL1        0.0342
@<TRIPOS>UNITY_ATOM_ATTR
5 1
charge 1
@<TRIPOS>BOND
     1     1     2    1
     2     1    13    1
     3     1    14    1
     4     1    15    1
     5     2     3    1
     6     2     4    1
     7     2     9    1
     8     4     5    1
     9     4    16    1
    10     4    17    1
    11     5     6    1
    12     5     7    1
    13     5     8    1
    14     6    18    1
    15     6    19    1
    16     6    20    1
    17     7    21    1
    18     7    22    1
    19     7    23    1
    20     8    24    1
    21     8    25    1
    22     8    26    1
    23     9    10    1
    24    10    11    2
    25    10    12    1
    26    12    27    1
    27    12    28    1
    28    12    29    1
