@<TRIPOS>MOLECULE
ZINC03830309
 71 74 0 0 0
SMALL
GASTEIGER

@<TRIPOS>ATOM
      1 C          -2.0101    7.2727    4.4970 C.3     1  UNL1       -0.0653
      2 C          -1.9399    5.7476    4.3971 C.3     1  UNL1       -0.0554
      3 C          -1.4200    5.3505    3.0140 C.3     1  UNL1       -0.0432
      4 C          -1.3498    3.8254    2.9141 C.3     1  UNL1        0.0450
      5 C          -0.8377    3.4343    1.5518 C.2     1  UNL1        0.3080
      6 O          -0.5577    4.2878    0.7437 O.2     1  UNL1       -0.2508
      7 O          -0.6928    2.1377    1.2361 O.3     1  UNL1       -0.4494
      8 C          -0.3197    1.8312   -0.1292 C.3     1  UNL1        0.1810
      9 C          -0.3216    0.2989   -0.3558 C.3     1  UNL1        0.0041
     10 H          -0.9260    0.0458   -1.2266 H       1  UNL1        0.0341
     11 C           1.1618   -0.1016   -0.6101 C.3     1  UNL1       -0.0426
     12 C           1.9009    1.0294    0.1221 C.3     1  UNL1       -0.0253
     13 H           1.6686    0.9169    1.2075 H       1  UNL1        0.0311
     14 C           1.1390    2.2686   -0.3911 C.3     1  UNL1        0.0208
     15 C           1.5826    3.4913    0.3637 C.3     1  UNL1       -0.0141
     16 C           3.1100    3.6017    0.4661 C.3     1  UNL1        0.0910
     17 H           3.3783    3.5385    1.5350 H       1  UNL1        0.0626
     18 C           3.8798    2.5425   -0.2895 C.3     1  UNL1        0.1526
     19 C           3.3784    1.1291   -0.0167 C.3     1  UNL1        0.0003
     20 H           3.8304    0.8088    0.9496 H       1  UNL1        0.0336
     21 C           3.9730    0.2191   -1.0964 C.3     1  UNL1       -0.0432
     22 C           5.4540    0.0355   -0.7626 C.3     1  UNL1       -0.0301
     23 C           6.0612    1.2703   -0.1527 C.2     1  UNL1       -0.0532
     24 C           7.3263    1.1447    0.2981 C.2     1  UNL1       -0.0148
     25 C           7.9278    2.2683    1.0489 C.2     1  UNL1        0.1787
     26 O           9.1425    2.3866    1.1618 O.2     1  UNL1       -0.2879
     27 C           7.0029    3.2268    1.6979 C.2     1  UNL1       -0.0180
     28 C           5.7627    3.3576    1.1904 C.2     1  UNL1       -0.0674
     29 C           5.3737    2.5843   -0.0234 C.3     1  UNL1        0.0443
     30 C           5.9166    3.4066   -1.2010 C.3     1  UNL1       -0.0493
     31 F           3.7994    2.8050   -1.6594 F       1  UNL1       -0.2377
     32 O           3.5006    4.9060    0.0051 O.3     1  UNL1       -0.3886
     33 C           1.2447    2.4689   -1.9016 C.3     1  UNL1       -0.0551
     34 C          -0.8575   -0.4162    0.8844 C.3     1  UNL1       -0.0583
     35 C          -1.2390    2.5138   -1.1031 C.2     1  UNL1        0.2024
     36 O          -1.7768    3.5517   -0.8000 O.2     1  UNL1       -0.2907
     37 C          -1.4896    1.9029   -2.4578 C.3     1  UNL1        0.1063
     38 O          -2.2785    2.7973   -3.2451 O.3     1  UNL1       -0.3874
     39 H          -1.0153    7.6928    4.3484 H       1  UNL1        0.0230
     40 H          -2.6845    7.6563    3.7314 H       1  UNL1        0.0230
     41 H          -2.3804    7.5557    5.4823 H       1  UNL1        0.0230
     42 H          -2.9347    5.3276    4.5457 H       1  UNL1        0.0263
     43 H          -1.2654    5.3640    5.1627 H       1  UNL1        0.0263
     44 H          -0.4252    5.7705    2.8654 H       1  UNL1        0.0270
     45 H          -2.0944    5.7341    2.2484 H       1  UNL1        0.0270
     46 H          -2.3446    3.4054    3.0627 H       1  UNL1        0.0377
     47 H          -0.6754    3.4418    3.6797 H       1  UNL1        0.0377
     48 H           1.3751   -1.0633   -0.1373 H       1  UNL1        0.0272
     49 H           1.3946   -0.1314   -1.6644 H       1  UNL1        0.0272
     50 H           1.1554    3.4826    1.3768 H       1  UNL1        0.0298
     51 H           1.1956    4.3912   -0.1414 H       1  UNL1        0.0298
     52 H           3.4731   -0.7498   -1.0854 H       1  UNL1        0.0272
     53 H           3.8660    0.6792   -2.0767 H       1  UNL1        0.0272
     54 H           6.0020   -0.2134   -1.6709 H       1  UNL1        0.0310
     55 H           5.5585   -0.7862   -0.0505 H       1  UNL1        0.0310
     56 H           7.8687    0.2077    0.1587 H       1  UNL1        0.0656
     57 H           7.3250    3.8525    2.5281 H       1  UNL1        0.0653
     58 H           5.0628    4.0323    1.6810 H       1  UNL1        0.0583
     59 H           5.4631    4.3978   -1.1917 H       1  UNL1        0.0242
     60 H           6.9986    3.5013   -1.1099 H       1  UNL1        0.0242
     61 H           5.6734    2.9046   -2.1374 H       1  UNL1        0.0242
     62 H           3.0437    5.6334    0.4493 H       1  UNL1        0.2099
     63 H           0.3724    3.0173   -2.2573 H       1  UNL1        0.0237
     64 H           2.1478    3.0346   -2.1308 H       1  UNL1        0.0237
     65 H           1.2892    1.4978   -2.3946 H       1  UNL1        0.0237
     66 H          -1.9016   -0.1435    1.0383 H       1  UNL1        0.0234
     67 H          -0.7805   -1.4943    0.7438 H       1  UNL1        0.0234
     68 H          -0.2726   -0.1206    1.7553 H       1  UNL1        0.0234
     69 H          -0.6161    1.7377   -2.9157 H       1  UNL1        0.0638
     70 H          -2.0212    0.9589   -2.3379 H       1  UNL1        0.0638
     71 H          -2.4790    2.4681   -4.1320 H       1  UNL1        0.2100
@<TRIPOS>BOND
     1     1     2    1
     2     1    39    1
     3     1    40    1
     4     1    41    1
     5     2     3    1
     6     2    42    1
     7     2    43    1
     8     3     4    1
     9     3    44    1
    10     3    45    1
    11     4     5    1
    12     4    46    1
    13     4    47    1
    14     5     6    2
    15     5     7    1
    16     7     8    1
    17     8    14    1
    18     8     9    1
    19     8    35    1
    20     9    10    1
    21     9    11    1
    22     9    34    1
    23    11    12    1
    24    11    48    1
    25    11    49    1
    26    12    13    1
    27    12    19    1
    28    12    14    1
    29    14    15    1
    30    14    33    1
    31    15    16    1
    32    15    50    1
    33    15    51    1
    34    16    17    1
    35    16    18    1
    36    16    32    1
    37    18    29    1
    38    18    19    1
    39    18    31    1
    40    19    20    1
    41    19    21    1
    42    21    22    1
    43    21    52    1
    44    21    53    1
    45    22    23    1
    46    22    54    1
    47    22    55    1
    48    23    29    1
    49    23    24    2
    50    24    25    1
    51    24    56    1
    52    25    26    2
    53    25    27    1
    54    27    28    2
    55    27    57    1
    56    28    29    1
    57    28    58    1
    58    29    30    1
    59    30    59    1
    60    30    60    1
    61    30    61    1
    62    32    62    1
    63    33    63    1
    64    33    64    1
    65    33    65    1
    66    34    66    1
    67    34    67    1
    68    34    68    1
    69    35    36    2
    70    35    37    1
    71    37    38    1
    72    37    69    1
    73    37    70    1
    74    38    71    1
