@<TRIPOS>MOLECULE
ZINC03831020
 42 41 0 0 0
SMALL
GASTEIGER

@<TRIPOS>ATOM
      1 C          -8.7313    0.6244   -4.5872 C.3     1  UNL1       -0.0198
      2 C          -9.4415    0.9763   -5.8959 C.3     1  UNL1        0.0626
      3 CL        -11.1555    0.4224   -5.8174 Cl      1  UNL1       -0.1199
      4 C          -6.6202    0.7538   -3.4087 C.3     1  UNL1       -0.0044
      5 C          -5.1726    1.2382   -3.5130 C.3     1  UNL1        0.1229
      6 H          -4.7101    0.8121   -4.4033 H       1  UNL1        0.0674
      7 C          -4.3955    0.7937   -2.2722 C.3     1  UNL1        0.1144
      8 H          -4.3348   -0.2944   -2.2520 H       1  UNL1        0.0648
      9 C          -2.9840    1.3825   -2.3164 C.3     1  UNL1        0.1144
     10 H          -3.0448    2.4706   -2.3366 H       1  UNL1        0.0648
     11 C          -2.2069    0.9381   -1.0756 C.3     1  UNL1        0.1229
     12 H          -2.1462   -0.1501   -1.0554 H       1  UNL1        0.0674
     13 C          -0.7955    1.5269   -1.1198 C.3     1  UNL1       -0.0044
     14 C           1.3525    1.5499   -0.0025 C.3     1  UNL1       -0.0198
     15 C           2.1364    0.9845    1.1836 C.3     1  UNL1        0.0626
     16 CL          3.8106    1.6535    1.1712 Cl      1  UNL1       -0.1199
     17 O          -2.8791    1.3995    0.0980 O.3     1  UNL1       -0.3838
     18 O          -2.3119    0.9211   -3.4900 O.3     1  UNL1       -0.3864
     19 O          -5.0676    1.2551   -1.0986 O.3     1  UNL1       -0.3864
     20 O          -5.1527    2.6642   -3.6020 O.3     1  UNL1       -0.3838
     21 H          -8.7578   -0.4551   -4.4384 H       1  UNL1        0.0825
     22 H          -9.2351    1.1182   -3.7562 H       1  UNL1        0.0825
     23 H          -9.4150    2.0558   -6.0447 H       1  UNL1        0.0482
     24 H          -8.9378    0.4825   -6.7268 H       1  UNL1        0.0482
     25 H          -6.6320   -0.3247   -3.2517 H       1  UNL1        0.0840
     26 H          -7.1093    1.2485   -2.5696 H       1  UNL1        0.0840
     27 H          -0.8526    2.6132   -1.0504 H       1  UNL1        0.0840
     28 H          -0.3144    1.2475   -2.0571 H       1  UNL1        0.0840
     29 H           1.8485    1.2706   -0.9321 H       1  UNL1        0.0825
     30 H           1.3102    2.6363    0.0746 H       1  UNL1        0.0825
     31 H           1.6404    1.2638    2.1131 H       1  UNL1        0.0482
     32 H           2.1787   -0.1019    1.1064 H       1  UNL1        0.0482
     33 H          -2.9693    2.3610    0.1471 H       1  UNL1        0.2101
     34 H          -2.2216   -0.0404   -3.5391 H       1  UNL1        0.2100
     35 H          -5.1579    2.2166   -1.0494 H       1  UNL1        0.2100
     36 H          -5.5491    3.1113   -2.8417 H       1  UNL1        0.2101
     37 N          -7.3305    1.0807   -4.6595 N.4     1  UNL1        0.2297
     38 H          -7.3124    2.0971   -4.8036 H       1  UNL1        0.2015
     39 H          -6.8628    0.6151   -5.4462 H       1  UNL1        0.2015
     40 N          -0.0153    0.9979    0.0149 N.4     1  UNL1        0.2297
     41 H           0.0315   -0.0254   -0.0540 H       1  UNL1        0.2015
     42 H          -0.4755    1.2610    0.8943 H       1  UNL1        0.2015
@<TRIPOS>UNITY_ATOM_ATTR
37 1
charge 1
40 1
charge 1
@<TRIPOS>BOND
     1     1     2    1
     2     1    21    1
     3     1    22    1
     4     1    37    1
     5     2     3    1
     6     2    23    1
     7     2    24    1
     8     4     5    1
     9     4    25    1
    10     4    26    1
    11     4    37    1
    12     5     6    1
    13     5     7    1
    14     5    20    1
    15     7     8    1
    16     7     9    1
    17     7    19    1
    18     9    10    1
    19     9    11    1
    20     9    18    1
    21    11    12    1
    22    11    13    1
    23    11    17    1
    24    13    27    1
    25    13    28    1
    26    13    40    1
    27    14    15    1
    28    14    29    1
    29    14    30    1
    30    14    40    1
    31    15    16    1
    32    15    31    1
    33    15    32    1
    34    17    33    1
    35    18    34    1
    36    19    35    1
    37    20    36    1
    38    37    38    1
    39    37    39    1
    40    40    41    1
    41    40    42    1
