@<TRIPOS>MOLECULE
ZINC03830374
 89 93 0 0 0
SMALL
GASTEIGER

@<TRIPOS>ATOM
      1 C           2.1137    6.9655    1.0976 C.3     1  UNL1       -0.0562
      2 C           2.2890    6.2563   -0.2689 C.3     1  UNL1        0.0055
      3 C           1.6374    4.8937   -0.1734 C.3     1  UNL1       -0.0264
      4 H           1.9885    4.4619    0.7978 H       1  UNL1        0.0313
      5 C           0.1191    4.9660   -0.0524 C.3     1  UNL1       -0.0486
      6 C          -0.4226    3.5904    0.3765 C.3     1  UNL1       -0.0459
      7 C          -0.0726    2.5336   -0.6740 C.3     1  UNL1       -0.0127
      8 C           1.4401    2.5316   -0.8871 C.3     1  UNL1        0.0333
      9 H           1.6732    1.8875   -1.6157 H       1  UNL1        0.0392
     10 C           2.0284    3.8988   -1.2549 C.3     1  UNL1       -0.0182
     11 C           3.5611    3.7997   -1.3266 C.3     1  UNL1       -0.0433
     12 C           4.1430    5.1823   -1.6256 C.3     1  UNL1       -0.0146
     13 C           3.7942    6.1591   -0.5115 C.3     1  UNL1        0.1084
     14 H           4.1679    7.1553   -0.7809 H       1  UNL1        0.0739
     15 O           4.4505    5.7475    0.7202 O.3     1  UNL1       -0.4608
     16 C           5.6776    6.2402    0.9510 C.2     1  UNL1        0.3077
     17 O           6.1876    6.9899    0.1524 O.2     1  UNL1       -0.2508
     18 C           6.4191    5.8584    2.2061 C.3     1  UNL1        0.0500
     19 C           7.7829    6.5516    2.2236 C.3     1  UNL1       -0.0031
     20 C           8.5245    6.1697    3.4787 C.2     1  UNL1        0.0423
     21 O           8.0145    5.4200    4.2773 O.co2   1  UNL1       -0.5498
     22 C           1.5764    4.3285   -2.6507 C.3     1  UNL1       -0.0586
     23 C           2.0437    2.1371    0.4579 C.2     1  UNL1        0.1602
     24 O           2.9628    2.7359    0.9713 O.2     1  UNL1       -0.2923
     25 C           1.4792    0.9728    1.1441 C.2     1  UNL1       -0.0188
     26 C           0.3277    0.4446    0.7337 C.2     1  UNL1       -0.0562
     27 C          -0.5506    1.1387   -0.2586 C.3     1  UNL1       -0.0043
     28 C          -0.7957    0.2257   -1.4534 C.3     1  UNL1       -0.0429
     29 C          -0.3623   -1.2256   -1.2067 C.3     1  UNL1       -0.0463
     30 C          -0.7823   -1.7177    0.1610 C.3     1  UNL1       -0.0254
     31 C          -0.0138   -0.9279    1.2236 C.3     1  UNL1       -0.0127
     32 H           0.9864   -1.4514    1.3061 H       1  UNL1        0.0351
     33 C          -0.6701   -1.0958    2.5684 C.3     1  UNL1       -0.0354
     34 C          -0.6392   -2.5791    2.9545 C.3     1  UNL1        0.0079
     35 C          -0.9618   -3.5436    1.8294 C.3     1  UNL1       -0.0420
     36 C          -0.4013   -3.1784    0.4540 C.3     1  UNL1       -0.0462
     37 C           0.7441   -2.9166    3.5284 C.3     1  UNL1       -0.0544
     38 C          -1.6544   -2.7877    4.0639 C.2     1  UNL1        0.0476
     39 O          -2.3668   -1.8754    4.4104 O.co2   1  UNL1       -0.5493
     40 C          -2.2976   -1.6296    0.2999 C.3     1  UNL1       -0.0590
     41 C          -1.9092    1.3704    0.4104 C.3     1  UNL1       -0.0553
     42 C          -0.8725    2.8715   -1.9414 C.3     1  UNL1       -0.0581
     43 C           1.6434    7.1544   -1.3224 C.3     1  UNL1       -0.0562
     44 H           2.5678    7.9555    1.0541 H       1  UNL1        0.0236
     45 H           1.0517    7.0625    1.3231 H       1  UNL1        0.0236
     46 H           2.5985    6.3775    1.8770 H       1  UNL1        0.0236
     47 H          -0.1608    5.6855    0.7225 H       1  UNL1        0.0268
     48 H          -0.3414    5.2710   -0.9844 H       1  UNL1        0.0268
     49 H          -1.5020    3.7208    0.4670 H       1  UNL1        0.0271
     50 H           0.0079    3.3242    1.3369 H       1  UNL1        0.0271
     51 H           3.9845    3.4306   -0.4060 H       1  UNL1        0.0272
     52 H           3.8241    3.1191   -2.1425 H       1  UNL1        0.0272
     53 H           5.2401    5.0861   -1.6740 H       1  UNL1        0.0301
     54 H           3.8094    5.5565   -2.5868 H       1  UNL1        0.0301
     55 H           5.8425    6.1688    3.0774 H       1  UNL1        0.0381
     56 H           6.5605    4.7778    2.2301 H       1  UNL1        0.0381
     57 H           8.3595    6.2412    1.3522 H       1  UNL1        0.0330
     58 H           7.6416    7.6321    2.1996 H       1  UNL1        0.0330
     59 H           0.5358    4.6507   -2.6125 H       1  UNL1        0.0235
     60 H           2.1996    5.1531   -2.9966 H       1  UNL1        0.0235
     61 H           1.6715    3.4880   -3.3382 H       1  UNL1        0.0235
     62 H           2.0381    0.4862    1.9304 H       1  UNL1        0.0652
     63 H          -1.8489    0.2532   -1.7285 H       1  UNL1        0.0274
     64 H          -0.2003    0.5686   -2.3109 H       1  UNL1        0.0274
     65 H           0.7257   -1.2969   -1.3030 H       1  UNL1        0.0271
     66 H          -0.8133   -1.8648   -1.9750 H       1  UNL1        0.0271
     67 H          -0.0906   -0.5368    3.3240 H       1  UNL1        0.0280
     68 H          -1.6845   -0.7147    2.5973 H       1  UNL1        0.0280
     69 H          -2.0416   -3.7042    1.7730 H       1  UNL1        0.0274
     70 H          -0.5380   -4.5310    2.1055 H       1  UNL1        0.0274
     71 H          -0.8399   -3.8192   -0.3129 H       1  UNL1        0.0271
     72 H           0.6824   -3.2760    0.4426 H       1  UNL1        0.0271
     73 H           1.4949   -2.8268    2.7434 H       1  UNL1        0.0239
     74 H           0.9802   -2.2255    4.3377 H       1  UNL1        0.0239
     75 H           0.7394   -3.9369    3.9117 H       1  UNL1        0.0239
     76 H          -2.6489   -0.6957   -0.1389 H       1  UNL1        0.0235
     77 H          -2.7593   -2.4705   -0.2176 H       1  UNL1        0.0235
     78 H          -2.5681   -1.6596    1.3553 H       1  UNL1        0.0235
     79 H          -2.6355    1.6815   -0.3405 H       1  UNL1        0.0238
     80 H          -2.2453    0.4460    0.8800 H       1  UNL1        0.0238
     81 H          -1.8134    2.1486    1.1676 H       1  UNL1        0.0238
     82 H          -1.9239    2.6326   -1.7820 H       1  UNL1        0.0236
     83 H          -0.7708    3.9339   -2.1628 H       1  UNL1        0.0236
     84 H          -0.4902    2.2877   -2.7788 H       1  UNL1        0.0236
     85 H           1.7726    6.7084   -2.3086 H       1  UNL1        0.0236
     86 H           0.5800    7.2598   -1.1077 H       1  UNL1        0.0236
     87 H           2.1171    8.1359   -1.3027 H       1  UNL1        0.0236
     88 O           9.7516    6.6625    3.7095 O.co2   1  UNL1       -0.5498
     89 O          -1.7607   -3.9858    4.6598 O.co2   1  UNL1       -0.5493
@<TRIPOS>UNITY_ATOM_ATTR
88 1
charge -1
89 1
charge -1
@<TRIPOS>BOND
     1     1     2    1
     2     1    44    1
     3     1    45    1
     4     1    46    1
     5     2    13    1
     6     2     3    1
     7     2    43    1
     8     3     4    1
     9     3    10    1
    10     3     5    1
    11     5     6    1
    12     5    47    1
    13     5    48    1
    14     6     7    1
    15     6    49    1
    16     6    50    1
    17     7    27    1
    18     7     8    1
    19     7    42    1
    20     8     9    1
    21     8    10    1
    22     8    23    1
    23    10    11    1
    24    10    22    1
    25    11    12    1
    26    11    51    1
    27    11    52    1
    28    12    13    1
    29    12    53    1
    30    12    54    1
    31    13    14    1
    32    13    15    1
    33    15    16    1
    34    16    17    2
    35    16    18    1
    36    18    19    1
    37    18    55    1
    38    18    56    1
    39    19    20    1
    40    19    57    1
    41    19    58    1
    42    20    21   ar
    43    20    88   ar
    44    22    59    1
    45    22    60    1
    46    22    61    1
    47    23    24    2
    48    23    25    1
    49    25    26    2
    50    25    62    1
    51    26    31    1
    52    26    27    1
    53    27    28    1
    54    27    41    1
    55    28    29    1
    56    28    63    1
    57    28    64    1
    58    29    30    1
    59    29    65    1
    60    29    66    1
    61    30    36    1
    62    30    31    1
    63    30    40    1
    64    31    32    1
    65    31    33    1
    66    33    34    1
    67    33    67    1
    68    33    68    1
    69    34    35    1
    70    34    37    1
    71    34    38    1
    72    35    36    1
    73    35    69    1
    74    35    70    1
    75    36    71    1
    76    36    72    1
    77    37    73    1
    78    37    74    1
    79    37    75    1
    80    38    39   ar
    81    38    89   ar
    82    40    76    1
    83    40    77    1
    84    40    78    1
    85    41    79    1
    86    41    80    1
    87    41    81    1
    88    42    82    1
    89    42    83    1
    90    42    84    1
    91    43    85    1
    92    43    86    1
    93    43    87    1
