@<TRIPOS>MOLECULE
ZINC03831119
 60 63 0 0 0
SMALL
GASTEIGER

@<TRIPOS>ATOM
      1 C          -1.8767    5.3483   12.3564 C.3     1  UNL1       -0.0486
      2 C          -2.3939    5.8353   11.0013 C.3     1  UNL1        0.0366
      3 CA         -1.2280    6.2304   10.0532 C.3     1  UNL1        0.0807
      4 HA         -1.6072    6.9047    9.2853 H       1  UNL1        0.0576
      5 N          -0.6315    5.0564    9.4070 N.am    1  UNL1       -0.2761
      6 C          -1.5225    3.8881    9.2452 C.3     1  UNL1        0.1003
      7 H          -1.1487    2.9202    9.5795 H       1  UNL1        0.0640
      8 S          -3.1004    4.4472   10.0045 S.3     1  UNL1       -0.1275
      9 CA         -1.3983    4.1905    7.7560 C.3     1  UNL1        0.1277
     10 HA         -2.2930    4.6448    7.3304 H       1  UNL1        0.0622
     11 C          -0.3189    5.1911    8.0876 C.2     1  UNL1        0.2401
     12 O           0.4850    5.8387    7.4510 O.2     1  UNL1       -0.2734
     13 N          -0.9145    3.0526    6.9703 N.am    1  UNL1       -0.2999
     14 C          -1.1893    2.9779    5.6529 C.2     1  UNL1        0.2386
     15 O          -1.8371    3.8526    5.1180 O.2     1  UNL1       -0.2734
     16 CA         -0.6917    1.8074    4.8446 C.3     1  UNL1        0.1261
     17 HA          0.3968    1.7718    4.8890 H       1  UNL1        0.0646
     18 C          -1.2595    0.5302    5.4080 C.ar    1  UNL1       -0.0184
     19 C          -2.5538    0.1546    5.1008 C.ar    1  UNL1       -0.0563
     20 C          -3.0732   -1.0192    5.6140 C.ar    1  UNL1       -0.0614
     21 C          -2.3012   -1.8128    6.4419 C.ar    1  UNL1       -0.0617
     22 C          -1.0086   -1.4345    6.7533 C.ar    1  UNL1       -0.0614
     23 C          -0.4878   -0.2629    6.2366 C.ar    1  UNL1       -0.0563
     24 N          -1.1189    1.9590    3.4516 N.am    1  UNL1       -0.2836
     25 C          -0.4204    1.3647    2.4640 C.2     1  UNL1        0.3106
     26 O           0.5089    0.6294    2.7344 O.2     1  UNL1       -0.2521
     27 N          -0.7523    1.5858    1.1765 N.am    1  UNL1       -0.2069
     28 C          -1.9121    2.3644    0.7172 C.3     1  UNL1        0.0430
     29 C          -1.8203    2.2983   -0.8196 C.3     1  UNL1        0.0552
     30 N          -0.6166    1.4904   -1.0662 N.am    1  UNL1       -0.1583
     31 C          -0.0785    1.1330    0.1072 C.2     1  UNL1        0.3313
     32 O           0.9284    0.4579    0.1964 O.2     1  UNL1       -0.2503
     33 S          -0.0209    1.0865   -2.5577 S.O2    1  UNL1        0.0459
     34 O           0.6980   -0.1208   -2.3462 O.2     1  UNL1       -0.1552
     35 O          -1.1505    1.1156   -3.4193 O.2     1  UNL1       -0.1552
     36 C           1.1231    2.4288   -2.9818 C.3     1  UNL1        0.0739
     37 C          -0.1678    6.9433   10.8525 C.2     1  UNL1        0.0635
     38 O           0.8487    6.3660   11.1581 O.co2   1  UNL1       -0.5478
     39 C          -3.3972    6.9786   11.1660 C.3     1  UNL1       -0.0486
     40 H          -1.3004    6.1420   12.8318 H       1  UNL1        0.0244
     41 H          -2.7205    5.0810   12.9925 H       1  UNL1        0.0244
     42 H          -1.2409    4.4752   12.2102 H       1  UNL1        0.0244
     43 H          -0.3965    2.3530    7.3981 H       1  UNL1        0.1496
     44 H          -3.1582    0.7764    4.4570 H       1  UNL1        0.0621
     45 H          -4.0829   -1.3149    5.3704 H       1  UNL1        0.0618
     46 H          -2.7079   -2.7285    6.8450 H       1  UNL1        0.0618
     47 H          -0.4055   -2.0544    7.4001 H       1  UNL1        0.0618
     48 H           0.5220    0.0327    6.4799 H       1  UNL1        0.0621
     49 H          -1.9046    2.4871    3.2399 H       1  UNL1        0.1513
     50 H          -1.8405    3.3964    1.0607 H       1  UNL1        0.0486
     51 H          -2.8399    1.9101    1.0650 H       1  UNL1        0.0486
     52 H          -2.7013    1.8088   -1.2349 H       1  UNL1        0.0499
     53 H          -1.7030    3.2974   -1.2393 H       1  UNL1        0.0499
     54 H           1.9135    2.4828   -2.2331 H       1  UNL1        0.0482
     55 H           1.5624    2.2362   -3.9606 H       1  UNL1        0.0482
     56 H           0.5810    3.3741   -3.0066 H       1  UNL1        0.0482
     57 H          -3.8166    7.2369   10.1937 H       1  UNL1        0.0244
     58 H          -4.1982    6.6655   11.8356 H       1  UNL1        0.0244
     59 H          -2.8915    7.8480   11.5861 H       1  UNL1        0.0244
     60 OXT        -0.3527    8.2195   11.2250 O.co2   1  UNL1       -0.5478
@<TRIPOS>UNITY_ATOM_ATTR
60 1
charge -1
@<TRIPOS>BOND
     1     1     2    1
     2     1    40    1
     3     1    41    1
     4     1    42    1
     5     2     8    1
     6     2     3    1
     7     2    39    1
     8     3     4    1
     9     3     5    1
    10     3    37    1
    11     5    11   am
    12     5     6    1
    13     6     7    1
    14     6     8    1
    15     6     9    1
    16     9    10    1
    17     9    11    1
    18     9    13    1
    19    11    12    2
    20    13    14   am
    21    13    43    1
    22    14    15    2
    23    14    16    1
    24    16    17    1
    25    16    18    1
    26    16    24    1
    27    18    23   ar
    28    18    19   ar
    29    19    20   ar
    30    19    44    1
    31    20    21   ar
    32    20    45    1
    33    21    22   ar
    34    21    46    1
    35    22    23   ar
    36    22    47    1
    37    23    48    1
    38    24    25   am
    39    24    49    1
    40    25    26    2
    41    25    27   am
    42    27    31   am
    43    27    28    1
    44    28    29    1
    45    28    50    1
    46    28    51    1
    47    29    30    1
    48    29    52    1
    49    29    53    1
    50    30    31   am
    51    30    33    1
    52    31    32    2
    53    33    34    2
    54    33    35    2
    55    33    36    1
    56    36    54    1
    57    36    55    1
    58    36    56    1
    59    37    38   ar
    60    37    60   ar
    61    39    57    1
    62    39    58    1
    63    39    59    1
