@<TRIPOS>MOLECULE
ZINC08101064
 122 124 0 0 0
SMALL
GASTEIGER

@<TRIPOS>ATOM
      1 C           1.3652   -2.9610   -1.7076 C.3     1  UNL1       -0.0618
      2 C           0.6380   -2.1133   -2.7533 C.3     1  UNL1       -0.0157
      3 C          -0.5037   -1.2871   -2.0563 C.3     1  UNL1        0.1335
      4 H          -1.2092   -1.9168   -1.5607 H       1  UNL1        0.0764
      5 C          -1.2206   -0.4349   -3.1316 C.3     1  UNL1        0.1262
      6 C          -2.3671    0.3430   -2.4770 C.3     1  UNL1        0.0963
      7 H          -1.9049    1.2558   -2.0461 H       1  UNL1        0.0630
      8 C          -3.5217    0.6418   -3.4038 C.3     1  UNL1        0.0437
      9 H          -3.9280   -0.2164   -3.7175 H       1  UNL1        0.0401
     10 C          -4.5256    1.4558   -2.5733 C.2     1  UNL1        0.1416
     11 O          -5.7519    1.4153   -2.8453 O.2     1  UNL1       -0.2967
     12 C          -4.1411    2.4913   -1.4817 C.3     1  UNL1        0.0177
     13 H          -4.9677    2.9400   -1.1419 H       1  UNL1        0.0376
     14 C          -3.4403    1.7287   -0.3879 C.3     1  UNL1       -0.0123
     15 C          -3.5016    2.4322    1.0321 C.3     1  UNL1        0.0934
     16 C          -2.3814    1.7144    1.7996 C.3     1  UNL1        0.0953
     17 H          -2.3862    0.6574    1.5657 H       1  UNL1        0.0629
     18 C          -1.0133    2.2228    1.6926 C.3     1  UNL1        0.0124
     19 H          -0.8142    3.0732    2.2994 H       1  UNL1        0.0349
     20 C           0.0374    1.1436    2.2185 C.3     1  UNL1        0.0793
     21 H          -0.5510    0.5496    2.9088 H       1  UNL1        0.0608
     22 C           0.7018    0.2370    1.2284 C.3     1  UNL1        0.0801
     23 H           1.0122   -0.6243    1.8844 H       1  UNL1        0.0436
     24 C          -0.2064   -0.3215    0.1973 C.2     1  UNL1        0.3128
     25 O          -1.2733   -0.8319    0.5324 O.2     1  UNL1       -0.2504
     26 O           0.0857   -0.3115   -1.1090 O.3     1  UNL1       -0.4581
     27 C           1.8974    0.8017    0.6397 C.3     1  UNL1       -0.0499
     28 O           1.0657    1.8699    2.9680 O.3     1  UNL1       -0.3468
     29 C           1.4641    1.2271    4.1805 C.3     1  UNL1        0.1627
     30 H           0.5786    0.9235    4.7389 H       1  UNL1        0.0911
     31 C           2.2920    2.1989    5.0254 C.3     1  UNL1        0.0298
     32 C           2.7656    1.4841    6.2947 C.3     1  UNL1        0.0991
     33 C           3.5603    0.2360    5.8982 C.3     1  UNL1        0.1098
     34 H           3.8551   -0.3083    6.7954 H       1  UNL1        0.0648
     35 C           2.6834   -0.6600    5.0196 C.3     1  UNL1        0.0874
     36 H           1.8139   -0.9885    5.5891 H       1  UNL1        0.0621
     37 O           2.2517    0.0751    3.8727 O.3     1  UNL1       -0.3456
     38 C           3.4897   -1.8801    4.5702 C.3     1  UNL1       -0.0361
     39 O           4.7270    0.6241    5.1700 O.3     1  UNL1       -0.3864
     40 C           3.6592    2.4230    7.1077 C.3     1  UNL1       -0.0331
     41 O           1.6337    1.1012    7.0783 O.3     1  UNL1       -0.3740
     42 C           0.8162    2.1974    7.4930 C.3     1  UNL1        0.0373
     43 C          -0.6139    2.6302    0.2876 C.3     1  UNL1       -0.0576
     44 O          -2.7561    1.8641    3.2628 O.3     1  UNL1       -0.3421
     45 C          -3.4117    0.7206    3.8148 C.3     1  UNL1        0.1909
     46 H          -4.2117    0.4023    3.1464 H       1  UNL1        0.0939
     47 C          -4.0008    1.0801    5.1813 C.3     1  UNL1        0.1482
     48 H          -4.7528    1.8597    5.0601 H       1  UNL1        0.0702
     49 C          -4.6490   -0.1658    5.7929 C.3     1  UNL1        0.0124
     50 H          -5.4759   -0.4932    5.1627 H       1  UNL1        0.0879
     51 C          -3.6014   -1.2794    5.8862 C.3     1  UNL1        0.0190
     52 C          -3.0277   -1.5477    4.4924 C.3     1  UNL1        0.0642
     53 H          -3.8226   -1.8959    3.8330 H       1  UNL1        0.0596
     54 O          -2.4682   -0.3416    3.9686 O.3     1  UNL1       -0.3454
     55 C          -1.9375   -2.6171    4.5866 C.3     1  UNL1       -0.0384
     56 C          -6.1698    1.2075    7.0828 C.3     1  UNL1       -0.0430
     57 C          -5.6734   -1.0512    7.8002 C.3     1  UNL1       -0.0430
     58 O          -2.9606    1.5496    6.0413 O.3     1  UNL1       -0.3813
     59 C          -3.3248    3.9310    0.9482 C.3     1  UNL1       -0.0334
     60 O          -4.7040    2.1882    1.6607 O.3     1  UNL1       -0.3743
     61 C          -5.8471    2.5999    0.9085 C.3     1  UNL1        0.0373
     62 C          -3.1854    3.5200   -2.1044 C.3     1  UNL1       -0.0556
     63 C          -3.1104    1.4333   -4.6499 C.3     1  UNL1       -0.0532
     64 O          -2.8329   -0.5423   -1.3758 O.3     1  UNL1       -0.3881
     65 C          -0.1662    0.4285   -3.8210 C.3     1  UNL1       -0.0301
     66 O          -1.7655   -1.3651   -4.0636 O.3     1  UNL1       -0.3826
     67 H           2.1567   -3.5338   -2.1908 H       1  UNL1        0.0231
     68 H           1.7994   -2.3092   -0.9495 H       1  UNL1        0.0231
     69 H           0.6576   -3.6439   -1.2375 H       1  UNL1        0.0231
     70 H           0.2038   -2.7651   -3.5114 H       1  UNL1        0.0299
     71 H           1.3456   -1.4303   -3.2233 H       1  UNL1        0.0299
     72 H          -4.1059    0.8234   -0.2414 H       1  UNL1        0.0300
     73 H          -2.4786    1.3647   -0.6606 H       1  UNL1        0.0300
     74 H           2.6230    1.0151    1.4247 H       1  UNL1        0.0238
     75 H           2.3252    0.0906   -0.0669 H       1  UNL1        0.0238
     76 H           1.6445    1.7248    0.1181 H       1  UNL1        0.0238
     77 H           3.1563    2.5346    4.4524 H       1  UNL1        0.0343
     78 H           1.6789    3.0578    5.2983 H       1  UNL1        0.0343
     79 H           3.8194   -2.4402    5.4452 H       1  UNL1        0.0255
     80 H           2.8652   -2.5180    3.9446 H       1  UNL1        0.0255
     81 H           4.3588   -1.5515    4.0004 H       1  UNL1        0.0255
     82 H           5.2786   -0.1178    4.8866 H       1  UNL1        0.2100
     83 H           3.0950    3.3142    7.3824 H       1  UNL1        0.0258
     84 H           3.9955    1.9132    8.0105 H       1  UNL1        0.0258
     85 H           4.5238    2.7104    6.5093 H       1  UNL1        0.0258
     86 H           0.4374    2.7207    6.6151 H       1  UNL1        0.0524
     87 H          -0.0210    1.8237    8.0825 H       1  UNL1        0.0524
     88 H           1.4086    2.8840    8.0978 H       1  UNL1        0.0524
     89 H          -0.4862    1.7389   -0.3267 H       1  UNL1        0.0234
     90 H           0.3238    3.1847    0.3227 H       1  UNL1        0.0234
     91 H          -1.3924    3.2599   -0.1433 H       1  UNL1        0.0234
     92 H          -2.7997   -0.9700    6.5567 H       1  UNL1        0.0346
     93 H          -4.0675   -2.1868    6.2701 H       1  UNL1        0.0346
     94 H          -2.3797   -3.5592    4.9106 H       1  UNL1        0.0255
     95 H          -1.4740   -2.7504    3.6092 H       1  UNL1        0.0255
     96 H          -1.1822   -2.3034    5.3072 H       1  UNL1        0.0255
     97 H          -7.0056    0.8752    6.4670 H       1  UNL1        0.0778
     98 H          -6.5242    1.4223    8.0910 H       1  UNL1        0.0778
     99 H          -5.7358    2.1090    6.6505 H       1  UNL1        0.0778
    100 H          -4.8554   -1.7460    7.9903 H       1  UNL1        0.0778
    101 H          -6.1393   -0.7712    8.7450 H       1  UNL1        0.0778
    102 H          -6.4134   -1.5282    7.1576 H       1  UNL1        0.0778
    103 H          -2.5033    2.3356    5.7125 H       1  UNL1        0.2103
    104 H          -4.0132    4.3371    0.2071 H       1  UNL1        0.0258
    105 H          -3.5336    4.3765    1.9208 H       1  UNL1        0.0258
    106 H          -2.2999    4.1602    0.6561 H       1  UNL1        0.0258
    107 H          -6.7372    2.5327    1.5342 H       1  UNL1        0.0524
    108 H          -5.7126    3.6297    0.5775 H       1  UNL1        0.0524
    109 H          -5.9636    1.9514    0.0402 H       1  UNL1        0.0524
    110 H          -3.6821    4.0210   -2.9353 H       1  UNL1        0.0236
    111 H          -2.9038    4.2565   -1.3519 H       1  UNL1        0.0236
    112 H          -2.2920    3.0123   -2.4680 H       1  UNL1        0.0236
    113 H          -2.3743    0.8627   -5.2162 H       1  UNL1        0.0237
    114 H          -3.9873    1.6135   -5.2717 H       1  UNL1        0.0237
    115 H          -2.6769    2.3868   -4.3480 H       1  UNL1        0.0237
    116 H          -3.2350   -1.3681   -1.6783 H       1  UNL1        0.2099
    117 H           0.5829   -0.2136   -4.2844 H       1  UNL1        0.0259
    118 H          -0.6424    1.0419   -4.5859 H       1  UNL1        0.0259
    119 H           0.3134    1.0734   -3.0847 H       1  UNL1        0.0259
    120 H          -1.1043   -1.9263   -4.4914 H       1  UNL1        0.2104
    121 N          -5.1287    0.1605    7.1523 N.4     1  UNL1        0.2351
    122 H          -4.3403    0.5106    7.7091 H       1  UNL1        0.2031
@<TRIPOS>UNITY_ATOM_ATTR
121 1
charge 1
@<TRIPOS>BOND
     1     1     2    1
     2     1    67    1
     3     1    68    1
     4     1    69    1
     5     2     3    1
     6     2    70    1
     7     2    71    1
     8     3     4    1
     9     3    26    1
    10     3     5    1
    11     5     6    1
    12     5    65    1
    13     5    66    1
    14     6     7    1
    15     6     8    1
    16     6    64    1
    17     8     9    1
    18     8    10    1
    19     8    63    1
    20    10    11    2
    21    10    12    1
    22    12    13    1
    23    12    14    1
    24    12    62    1
    25    14    15    1
    26    14    72    1
    27    14    73    1
    28    15    16    1
    29    15    59    1
    30    15    60    1
    31    16    17    1
    32    16    18    1
    33    16    44    1
    34    18    19    1
    35    18    20    1
    36    18    43    1
    37    20    21    1
    38    20    22    1
    39    20    28    1
    40    22    23    1
    41    22    24    1
    42    22    27    1
    43    24    25    2
    44    24    26    1
    45    27    74    1
    46    27    75    1
    47    27    76    1
    48    28    29    1
    49    29    30    1
    50    29    37    1
    51    29    31    1
    52    31    32    1
    53    31    77    1
    54    31    78    1
    55    32    33    1
    56    32    40    1
    57    32    41    1
    58    33    34    1
    59    33    35    1
    60    33    39    1
    61    35    36    1
    62    35    37    1
    63    35    38    1
    64    38    79    1
    65    38    80    1
    66    38    81    1
    67    39    82    1
    68    40    83    1
    69    40    84    1
    70    40    85    1
    71    41    42    1
    72    42    86    1
    73    42    87    1
    74    42    88    1
    75    43    89    1
    76    43    90    1
    77    43    91    1
    78    44    45    1
    79    45    46    1
    80    45    54    1
    81    45    47    1
    82    47    48    1
    83    47    49    1
    84    47    58    1
    85    49    50    1
    86    49    51    1
    87    49   121    1
    88    51    52    1
    89    51    92    1
    90    51    93    1
    91    52    53    1
    92    52    54    1
    93    52    55    1
    94    55    94    1
    95    55    95    1
    96    55    96    1
    97    56    97    1
    98    56    98    1
    99    56    99    1
   100    56   121    1
   101    57   100    1
   102    57   101    1
   103    57   102    1
   104    57   121    1
   105    58   103    1
   106    59   104    1
   107    59   105    1
   108    59   106    1
   109    60    61    1
   110    61   107    1
   111    61   108    1
   112    61   109    1
   113    62   110    1
   114    62   111    1
   115    62   112    1
   116    63   113    1
   117    63   114    1
   118    63   115    1
   119    64   116    1
   120    65   117    1
   121    65   118    1
   122    65   119    1
   123    66   120    1
   124   121   122    1
