@<TRIPOS>MOLECULE
ZINC00897322
 31 32 0 0 0
SMALL
GASTEIGER

@<TRIPOS>ATOM
      1 C           3.6767    2.1809   -0.0204 C.3     1  UNL1       -0.0396
      2 C           2.3801    1.4128   -0.0126 C.ar    1  UNL1       -0.0467
      3 C           2.3962    0.0303   -0.0207 C.ar    1  UNL1       -0.0557
      4 C           1.2083   -0.6773   -0.0131 C.ar    1  UNL1       -0.0467
      5 C           0.0021   -0.0041    0.0020 C.ar    1  UNL1       -0.0170
      6 C          -0.0167    1.3831    0.0096 C.ar    1  UNL1        0.1212
      7 C           1.1765    2.0907    0.0021 C.ar    1  UNL1       -0.0170
      8 O          -1.2021    2.0477    0.0189 O.3     1  UNL1       -0.4882
      9 C          -1.1453    3.4755    0.0264 C.3     1  UNL1        0.1279
     10 C          -2.5664    4.0424    0.0362 C.3     1  UNL1        0.1538
     11 H          -3.1451    3.6347   -0.7926 H       1  UNL1        0.0785
     12 C          -2.5345    5.5815   -0.0329 C.3     1  UNL1        0.0551
     13 N          -3.1817    5.9989    1.2241 N.am    1  UNL1       -0.2775
     14 C          -3.5365    4.9061    1.9137 C.2     1  UNL1        0.4008
     15 O          -4.0928    4.9547    2.9929 O.2     1  UNL1       -0.2265
     16 O          -3.2215    3.7568    1.3059 O.3     1  UNL1       -0.4421
     17 C           1.2295   -2.1841   -0.0209 C.3     1  UNL1       -0.0396
     18 H           3.9797    2.3719   -1.0498 H       1  UNL1        0.0278
     19 H           3.5406    3.1288    0.5002 H       1  UNL1        0.0278
     20 H           4.4476    1.5974    0.4829 H       1  UNL1        0.0278
     21 H           3.3382   -0.4978   -0.0325 H       1  UNL1        0.0623
     22 H          -0.9255   -0.5572    0.0075 H       1  UNL1        0.0657
     23 H           1.1645    3.1706    0.0076 H       1  UNL1        0.0657
     24 H          -0.6132    3.8133    0.9157 H       1  UNL1        0.0734
     25 H          -0.6217    3.8230   -0.8642 H       1  UNL1        0.0734
     26 H          -1.5065    5.9417   -0.0731 H       1  UNL1        0.0501
     27 H          -3.1001    5.9379   -0.8937 H       1  UNL1        0.0501
     28 H          -3.3273    6.9156    1.5058 H       1  UNL1        0.1521
     29 H           1.2246   -2.5422   -1.0504 H       1  UNL1        0.0278
     30 H           2.1294   -2.5374    0.4824 H       1  UNL1        0.0278
     31 H           0.3497   -2.5625    0.4996 H       1  UNL1        0.0278
@<TRIPOS>BOND
     1     1     2    1
     2     1    18    1
     3     1    19    1
     4     1    20    1
     5     2     7   ar
     6     2     3   ar
     7     3     4   ar
     8     3    21    1
     9     4     5   ar
    10     4    17    1
    11     5     6   ar
    12     5    22    1
    13     6     7   ar
    14     6     8    1
    15     7    23    1
    16     8     9    1
    17     9    10    1
    18     9    24    1
    19     9    25    1
    20    10    11    1
    21    10    16    1
    22    10    12    1
    23    12    13    1
    24    12    26    1
    25    12    27    1
    26    13    14   am
    27    13    28    1
    28    14    15    2
    29    14    16    1
    30    17    29    1
    31    17    30    1
    32    17    31    1
