@<TRIPOS>MOLECULE
ZINC00119434
 48 54 0 0 0
SMALL
GASTEIGER

@<TRIPOS>ATOM
      1 C           1.1633    1.8158    0.0007 C.ar    1  UNL1       -0.0614
      2 C           1.1412    3.1955    0.0094 C.ar    1  UNL1       -0.0600
      3 C          -0.0449    3.9093    0.0050 C.ar    1  UNL1       -0.0400
      4 C          -1.2392    3.1792   -0.0091 C.ar    1  UNL1        0.0406
      5 C          -1.2013    1.7795    0.0173 C.ar    1  UNL1       -0.0125
      6 C          -0.0126    1.0758    0.0080 C.ar    1  UNL1       -0.0560
      7 C          -2.6115    1.2712    0.1228 C.3     1  UNL1        0.0642
      8 C          -2.7886    0.7346    1.5743 C.3     1  UNL1        0.0041
      9 C          -3.0701   -0.7745    1.3969 C.3     1  UNL1       -0.0302
     10 C          -2.9037    0.0783   -0.7545 C.3     1  UNL1       -0.0082
     11 H          -1.9593   -0.4183   -0.9771 H       1  UNL1        0.0861
     12 C          -3.6021    0.3396   -2.0729 C.3     1  UNL1       -0.0017
     13 C          -4.7903    1.2806   -1.7912 C.3     1  UNL1       -0.0029
     14 H          -5.4401    1.3854   -2.6601 H       1  UNL1        0.0353
     15 C          -4.1560    2.6054   -1.4210 C.3     1  UNL1        0.0127
     16 H          -3.3637    2.7767   -2.1497 H       1  UNL1        0.0350
     17 C          -3.4756    2.5040   -0.0569 C.3     1  UNL1        0.0518
     18 H          -4.1797    2.6211    0.7669 H       1  UNL1        0.0519
     19 N          -2.5257    3.6526   -0.1283 N.am    1  UNL1       -0.2666
     20 C          -3.0131    4.8811   -0.3908 C.2     1  UNL1        0.2225
     21 O          -2.3829    5.8489   -0.0202 O.2     1  UNL1       -0.2752
     22 C          -4.3107    5.0932   -1.1112 C.3     1  UNL1        0.0511
     23 C          -5.0571    3.8140   -1.4681 C.3     1  UNL1        0.0724
     24 H          -5.4022    3.9105   -2.4976 H       1  UNL1        0.0604
     25 O          -6.2074    3.6581   -0.6413 O.3     1  UNL1       -0.3717
     26 C          -7.0874    2.5993   -1.0364 C.3     1  UNL1        0.0667
     27 C          -6.6797    1.3517   -0.3044 C.2     1  UNL1       -0.0542
     28 C          -5.5529    0.7436   -0.6058 C.2     1  UNL1       -0.0233
     29 C          -5.1011   -0.3962    0.2325 C.3     1  UNL1       -0.0094
     30 H           2.1128    1.3014   -0.0123 H       1  UNL1        0.0618
     31 H           2.0770    3.7345    0.0203 H       1  UNL1        0.0618
     32 H          -0.0488    4.9893    0.0126 H       1  UNL1        0.0636
     33 H           0.0021   -0.0041    0.0020 H       1  UNL1        0.0621
     34 H          -1.8755    0.8862    2.1501 H       1  UNL1        0.0328
     35 H          -3.6307    1.2260    2.0616 H       1  UNL1        0.0328
     36 H          -2.1393   -1.3416    1.4010 H       1  UNL1        0.0815
     37 H          -3.7407   -1.1341    2.1773 H       1  UNL1        0.0815
     38 H          -3.9648   -0.5991   -2.4918 H       1  UNL1        0.0326
     39 H          -2.9120    0.8138   -2.7707 H       1  UNL1        0.0326
     40 H          -4.1088    5.6425   -2.0307 H       1  UNL1        0.0384
     41 H          -4.9575    5.7059   -0.4832 H       1  UNL1        0.0384
     42 H          -7.0083    2.4373   -2.1114 H       1  UNL1        0.0604
     43 H          -8.1140    2.8586   -0.7776 H       1  UNL1        0.0604
     44 H          -7.3146    0.9529    0.4729 H       1  UNL1        0.0596
     45 H          -5.7630   -1.2397    0.0360 H       1  UNL1        0.0864
     46 H          -5.2260   -0.1136    1.2778 H       1  UNL1        0.0864
     47 N          -3.6824   -0.8317    0.1010 N.4     1  UNL1        0.2411
     48 H          -3.6488   -1.7856   -0.2775 H       1  UNL1        0.2040
@<TRIPOS>UNITY_ATOM_ATTR
47 1
charge 1
@<TRIPOS>BOND
     1     1     6   ar
     2     1     2   ar
     3     1    30    1
     4     2     3   ar
     5     2    31    1
     6     3     4   ar
     7     3    32    1
     8     4    19    1
     9     4     5   ar
    10     5     6   ar
    11     5     7    1
    12     6    33    1
    13     7    10    1
    14     7    17    1
    15     7     8    1
    16     8     9    1
    17     8    34    1
    18     8    35    1
    19     9    36    1
    20     9    37    1
    21     9    47    1
    22    10    11    1
    23    10    12    1
    24    10    47    1
    25    12    13    1
    26    12    38    1
    27    12    39    1
    28    13    14    1
    29    13    28    1
    30    13    15    1
    31    15    16    1
    32    15    23    1
    33    15    17    1
    34    17    18    1
    35    17    19    1
    36    19    20   am
    37    20    21    2
    38    20    22    1
    39    22    23    1
    40    22    40    1
    41    22    41    1
    42    23    24    1
    43    23    25    1
    44    25    26    1
    45    26    27    1
    46    26    42    1
    47    26    43    1
    48    27    28    2
    49    27    44    1
    50    28    29    1
    51    29    45    1
    52    29    46    1
    53    29    47    1
    54    47    48    1
