@<TRIPOS>MOLECULE
ZINC03831278
 45 48 0 0 0
SMALL
GASTEIGER

@<TRIPOS>ATOM
      1 C           1.4605   -2.6455   -0.1967 C.ar    1  UNL1       -0.0555
      2 C           1.5261   -4.0258   -0.1778 C.ar    1  UNL1       -0.0262
      3 C           0.9537   -4.7596   -1.2030 C.ar    1  UNL1        0.1234
      4 C           0.3109   -4.1096   -2.2429 C.ar    1  UNL1       -0.0262
      5 C           0.2413   -2.7294   -2.2565 C.ar    1  UNL1       -0.0555
      6 C           0.8136   -1.9978   -1.2326 C.ar    1  UNL1       -0.0413
      7 C           0.7375   -0.4928   -1.2489 C.3     1  UNL1        0.0202
      8 H           0.2008   -0.1639   -2.1388 H       1  UNL1        0.0378
      9 C           2.1530    0.0910   -1.2600 C.3     1  UNL1       -0.0032
     10 C           2.0699    1.6185   -1.2150 C.3     1  UNL1       -0.0329
     11 C          -0.0187    1.5261    0.0104 C.3     1  UNL1       -0.0062
     12 C           0.0021   -0.0041    0.0020 C.3     1  UNL1        0.1055
     13 H           0.5174   -0.3659    0.8918 H       1  UNL1        0.0656
     14 O          -1.3383   -0.4993   -0.0085 O.3     1  UNL1       -0.3661
     15 C          -1.8911   -0.7081    1.2926 C.3     1  UNL1        0.0734
     16 C          -3.2995   -1.2280    1.1625 C.ar    1  UNL1       -0.0182
     17 C          -3.5289   -2.5899    1.0991 C.ar    1  UNL1       -0.0527
     18 C          -4.8191   -3.0718    0.9803 C.ar    1  UNL1       -0.0158
     19 C          -5.8862   -2.1900    0.9248 C.ar    1  UNL1        0.1662
     20 C          -5.6552   -0.8181    0.9887 C.ar    1  UNL1        0.1666
     21 C          -4.3598   -0.3425    1.1126 C.ar    1  UNL1       -0.0108
     22 O          -6.8542   -0.1698    0.9150 O.3     1  UNL1       -0.4526
     23 C          -7.7838   -1.1388    0.3954 C.3     1  UNL1        0.2332
     24 O          -7.2300   -2.4012    0.8111 O.3     1  UNL1       -0.4526
     25 F           1.0227   -6.1087   -1.1888 F       1  UNL1       -0.2055
     26 H           1.9114   -2.0727    0.6002 H       1  UNL1        0.0621
     27 H           2.0280   -4.5317    0.6337 H       1  UNL1        0.0646
     28 H          -0.1363   -4.6809   -3.0429 H       1  UNL1        0.0646
     29 H          -0.2600   -2.2222   -3.0676 H       1  UNL1        0.0621
     30 H           2.7021   -0.2693   -0.3901 H       1  UNL1        0.0323
     31 H           2.6673   -0.2188   -2.1698 H       1  UNL1        0.0323
     32 H           3.0763    2.0369   -1.2084 H       1  UNL1        0.0814
     33 H           1.5325    1.9790   -2.0922 H       1  UNL1        0.0814
     34 H          -0.5461    1.8871   -0.8725 H       1  UNL1        0.0840
     35 H          -0.5291    1.8775    0.9071 H       1  UNL1        0.0840
     36 H          -1.2841   -1.4344    1.8330 H       1  UNL1        0.0610
     37 H          -1.9010    0.2352    1.8387 H       1  UNL1        0.0610
     38 H          -2.6983   -3.2789    1.1429 H       1  UNL1        0.0622
     39 H          -4.9953   -4.1362    0.9309 H       1  UNL1        0.0655
     40 H          -4.1781    0.7207    1.1668 H       1  UNL1        0.0659
     41 H          -7.8301   -1.0804   -0.6921 H       1  UNL1        0.1166
     42 H          -8.7726   -0.9926    0.8302 H       1  UNL1        0.1166
     43 N           1.3634    2.0425    0.0088 N.4     1  UNL1        0.2288
     44 H           1.3412    3.0682    0.0484 H       1  UNL1        0.2014
     45 H           1.8612    1.6789    0.8299 H       1  UNL1        0.2014
@<TRIPOS>UNITY_ATOM_ATTR
43 1
charge 1
@<TRIPOS>BOND
     1     1     6   ar
     2     1     2   ar
     3     1    26    1
     4     2     3   ar
     5     2    27    1
     6     3     4   ar
     7     3    25    1
     8     4     5   ar
     9     4    28    1
    10     5     6   ar
    11     5    29    1
    12     6     7    1
    13     7     8    1
    14     7    12    1
    15     7     9    1
    16     9    10    1
    17     9    30    1
    18     9    31    1
    19    10    32    1
    20    10    33    1
    21    10    43    1
    22    11    12    1
    23    11    34    1
    24    11    35    1
    25    11    43    1
    26    12    13    1
    27    12    14    1
    28    14    15    1
    29    15    16    1
    30    15    36    1
    31    15    37    1
    32    16    21   ar
    33    16    17   ar
    34    17    18   ar
    35    17    38    1
    36    18    19   ar
    37    18    39    1
    38    19    24    1
    39    19    20   ar
    40    20    21   ar
    41    20    22    1
    42    21    40    1
    43    22    23    1
    44    23    24    1
    45    23    41    1
    46    23    42    1
    47    43    44    1
    48    43    45    1
