@<TRIPOS>MOLECULE
ZINC00538538
 38 39 0 0 0
SMALL
GASTEIGER

@<TRIPOS>ATOM
      1 C          -7.7233   -1.3325    2.9620 C.3     1  UNL1       -0.0379
      2 C          -7.4330   -0.5973    4.2450 C.ar    1  UNL1       -0.0290
      3 C          -8.3069   -0.6939    5.3101 C.ar    1  UNL1       -0.0571
      4 C          -8.0441   -0.0150    6.4858 C.ar    1  UNL1       -0.0611
      5 C          -6.9035    0.7582    6.6012 C.ar    1  UNL1       -0.0571
      6 C          -6.0230    0.8552    5.5415 C.ar    1  UNL1       -0.0290
      7 C          -6.2840    0.1746    4.3593 C.ar    1  UNL1        0.0395
      8 N          -5.3948    0.2710    3.2842 N.am    1  UNL1       -0.2809
      9 C          -4.9220   -0.8469    2.6984 C.2     1  UNL1        0.2519
     10 O          -5.2160   -1.9388    3.1459 O.2     1  UNL1       -0.2697
     11 C          -4.0482   -0.7461    1.5150 C.ar    1  UNL1        0.0803
     12 C          -3.7080    0.5068    0.9976 C.ar    1  UNL1       -0.0183
     13 C          -2.8918    0.5947   -0.1083 C.ar    1  UNL1        0.1242
     14 C          -2.4096   -0.5555   -0.7150 C.ar    1  UNL1        0.0707
     15 C          -2.7343   -1.8004   -0.2101 C.ar    1  UNL1        0.0008
     16 C          -3.5547   -1.9065    0.9024 C.ar    1  UNL1        0.1305
     17 O          -3.8781   -3.1278    1.3964 O.3     1  UNL1       -0.5060
     18 CL         -1.3871   -0.4306   -2.1124 Cl      1  UNL1       -0.0814
     19 S          -2.4644    2.1752   -0.7596 S.O2    1  UNL1        0.0574
     20 O          -3.0848    3.1409    0.0781 O.2     1  UNL1       -0.1532
     21 O          -2.7022    2.1155   -2.1593 O.2     1  UNL1       -0.1532
     22 N          -0.8303    2.3594   -0.5646 N.3     1  UNL1       -0.2035
     23 C          -4.7802    1.6981    5.6681 C.3     1  UNL1       -0.0379
     24 H          -7.4031   -2.3700    3.0572 H       1  UNL1        0.0278
     25 H          -8.7937   -1.2999    2.7587 H       1  UNL1        0.0278
     26 H          -7.1832   -0.8594    2.1419 H       1  UNL1        0.0278
     27 H          -9.1986   -1.2969    5.2232 H       1  UNL1        0.0621
     28 H          -8.7314   -0.0886    7.3157 H       1  UNL1        0.0618
     29 H          -6.7011    1.2872    7.5208 H       1  UNL1        0.0621
     30 H          -5.1183    1.1425    2.9601 H       1  UNL1        0.1552
     31 H          -4.0843    1.4050    1.4646 H       1  UNL1        0.0646
     32 H          -2.3518   -2.6917   -0.6852 H       1  UNL1        0.0669
     33 H          -4.6816   -3.5065    1.0143 H       1  UNL1        0.2922
     34 H          -0.3084    1.6536   -0.1519 H       1  UNL1        0.1442
     35 H          -0.3943    3.1716   -0.8668 H       1  UNL1        0.1442
     36 H          -4.9969    2.7159    5.3437 H       1  UNL1        0.0278
     37 H          -4.4536    1.7099    6.7080 H       1  UNL1        0.0278
     38 H          -3.9913    1.2781    5.0442 H       1  UNL1        0.0278
@<TRIPOS>BOND
     1     1     2    1
     2     1    24    1
     3     1    25    1
     4     1    26    1
     5     2     7   ar
     6     2     3   ar
     7     3     4   ar
     8     3    27    1
     9     4     5   ar
    10     4    28    1
    11     5     6   ar
    12     5    29    1
    13     6     7   ar
    14     6    23    1
    15     7     8    1
    16     8     9   am
    17     8    30    1
    18     9    10    2
    19     9    11    1
    20    11    16   ar
    21    11    12   ar
    22    12    13   ar
    23    12    31    1
    24    13    14   ar
    25    13    19    1
    26    14    15   ar
    27    14    18    1
    28    15    16   ar
    29    15    32    1
    30    16    17    1
    31    17    33    1
    32    19    20    2
    33    19    21    2
    34    19    22    1
    35    22    34    1
    36    22    35    1
    37    23    36    1
    38    23    37    1
    39    23    38    1
