@<TRIPOS>MOLECULE
ZINC03830280
 62 64 0 0 0
SMALL
GASTEIGER

@<TRIPOS>ATOM
      1 C          -0.1465    3.8402    2.8922 C.3     1  UNL1       -0.0493
      2 C          -0.5653    2.4335    2.4603 C.3     1  UNL1        0.0118
      3 N          -0.7796    2.4110    1.0112 N.am    1  UNL1       -0.3015
      4 C           0.3413    2.1348    0.1092 C.3     1  UNL1        0.0118
      5 C           0.5573    0.6232    0.0122 C.3     1  UNL1       -0.0493
      6 C          -2.0079    2.6444    0.5079 C.2     1  UNL1        0.2273
      7 O          -2.9564    2.7638    1.2543 O.2     1  UNL1       -0.2750
      8 C          -2.2027    2.7570   -0.9822 C.3     1  UNL1        0.1125
      9 H          -1.3296    3.2335   -1.4280 H       1  UNL1        0.0484
     10 C          -2.3835    1.3595   -1.5806 C.3     1  UNL1       -0.0165
     11 C          -2.6440    0.1535   -3.6703 C.3     1  UNL1       -0.0272
     12 C          -2.4902    0.3405   -5.1800 C.3     1  UNL1        0.0133
     13 C          -3.4552    1.3885   -5.6727 C.ar    1  UNL1       -0.0302
     14 C          -3.7196    1.4540   -7.0330 C.ar    1  UNL1       -0.0125
     15 C          -4.5954    2.4018   -7.5311 C.ar    1  UNL1        0.1618
     16 C          -5.2132    3.2945   -6.6599 C.ar    1  UNL1        0.1620
     17 C          -4.9473    3.2244   -5.3045 C.ar    1  UNL1       -0.0075
     18 C          -4.0447    2.2697   -4.8129 C.ar    1  UNL1        0.0073
     19 C          -3.8164    2.2323   -3.3258 C.3     1  UNL1        0.0088
     20 H          -4.6663    1.7479   -2.8449 H       1  UNL1        0.0905
     21 C          -3.6778    3.6572   -2.7854 C.3     1  UNL1        0.0328
     22 C          -3.4479    3.5991   -1.2722 C.3     1  UNL1        0.1245
     23 H          -4.3140    3.1462   -0.7896 H       1  UNL1        0.0745
     24 O          -3.2545    4.9434   -0.7584 O.3     1  UNL1       -0.4603
     25 C          -4.3507    5.6057   -0.3566 C.2     1  UNL1        0.3042
     26 O          -5.4358    5.0797   -0.4316 O.2     1  UNL1       -0.2512
     27 C          -4.2278    7.0055    0.1881 C.3     1  UNL1        0.0332
     28 O          -6.0742    4.2316   -7.1394 O.3     1  UNL1       -0.4914
     29 C          -6.6703    5.1133   -6.1859 C.3     1  UNL1        0.0790
     30 O          -4.8511    2.4615   -8.8654 O.3     1  UNL1       -0.4914
     31 C          -4.1799    1.5135   -9.6977 C.3     1  UNL1        0.0790
     32 H           0.8046    4.0957    2.4249 H       1  UNL1        0.0245
     33 H          -0.9073    4.5569    2.5829 H       1  UNL1        0.0245
     34 H          -0.0383    3.8704    3.9764 H       1  UNL1        0.0245
     35 H           0.2196    1.7241    2.7226 H       1  UNL1        0.0462
     36 H          -1.4892    2.1574    2.9685 H       1  UNL1        0.0462
     37 H           0.1184    2.5342   -0.8802 H       1  UNL1        0.0462
     38 H           1.2442    2.6067    0.4966 H       1  UNL1        0.0462
     39 H           0.9379    0.2489    0.9626 H       1  UNL1        0.0245
     40 H          -0.3897    0.1349   -0.2177 H       1  UNL1        0.0245
     41 H           1.2776    0.4091   -0.7773 H       1  UNL1        0.0245
     42 H          -1.4899    0.7646   -1.3917 H       1  UNL1        0.0823
     43 H          -3.2462    0.8763   -1.1220 H       1  UNL1        0.0823
     44 H          -1.8295   -0.4650   -3.2932 H       1  UNL1        0.0818
     45 H          -3.5997   -0.3248   -3.4562 H       1  UNL1        0.0818
     46 H          -1.4706    0.6545   -5.4034 H       1  UNL1        0.0365
     47 H          -2.6942   -0.6042   -5.6839 H       1  UNL1        0.0365
     48 H          -3.2390    0.7606   -7.7072 H       1  UNL1        0.0658
     49 H          -5.4262    3.9161   -4.6273 H       1  UNL1        0.0660
     50 H          -4.5897    4.2165   -2.9943 H       1  UNL1        0.0360
     51 H          -2.8303    4.1477   -3.2642 H       1  UNL1        0.0360
     52 H          -4.3165    7.7222   -0.6283 H       1  UNL1        0.0342
     53 H          -5.0202    7.1832    0.9153 H       1  UNL1        0.0342
     54 H          -3.2580    7.1235    0.6714 H       1  UNL1        0.0342
     55 H          -7.3337    5.8092   -6.6996 H       1  UNL1        0.0660
     56 H          -7.2427    4.5328   -5.4624 H       1  UNL1        0.0660
     57 H          -5.8894    5.6706   -5.6684 H       1  UNL1        0.0660
     58 H          -3.1020    1.6431   -9.6000 H       1  UNL1        0.0660
     59 H          -4.4536    0.5037   -9.3919 H       1  UNL1        0.0660
     60 H          -4.4721    1.6704  -10.7360 H       1  UNL1        0.0660
     61 N          -2.5769    1.4897   -3.0426 N.4     1  UNL1        0.2416
     62 H          -1.7814    2.0045   -3.4381 H       1  UNL1        0.2040
@<TRIPOS>UNITY_ATOM_ATTR
61 1
charge 1
@<TRIPOS>BOND
     1     1     2    1
     2     1    32    1
     3     1    33    1
     4     1    34    1
     5     2     3    1
     6     2    35    1
     7     2    36    1
     8     3     4    1
     9     3     6   am
    10     4     5    1
    11     4    37    1
    12     4    38    1
    13     5    39    1
    14     5    40    1
    15     5    41    1
    16     6     7    2
    17     6     8    1
    18     8     9    1
    19     8    22    1
    20     8    10    1
    21    10    42    1
    22    10    43    1
    23    10    61    1
    24    11    12    1
    25    11    44    1
    26    11    45    1
    27    11    61    1
    28    12    13    1
    29    12    46    1
    30    12    47    1
    31    13    18   ar
    32    13    14   ar
    33    14    15   ar
    34    14    48    1
    35    15    16   ar
    36    15    30    1
    37    16    17   ar
    38    16    28    1
    39    17    18   ar
    40    17    49    1
    41    18    19    1
    42    19    20    1
    43    19    21    1
    44    19    61    1
    45    21    22    1
    46    21    50    1
    47    21    51    1
    48    22    23    1
    49    22    24    1
    50    24    25    1
    51    25    26    2
    52    25    27    1
    53    27    52    1
    54    27    53    1
    55    27    54    1
    56    28    29    1
    57    29    55    1
    58    29    56    1
    59    29    57    1
    60    30    31    1
    61    31    58    1
    62    31    59    1
    63    31    60    1
    64    61    62    1
