@<TRIPOS>MOLECULE
ZINC03812903
 44 45 0 0 0
SMALL
GASTEIGER

@<TRIPOS>ATOM
      1 C          -2.0586    0.2466   -8.3322 C.3     1  UNL1        0.0790
      2 O          -0.6593   -0.0429   -8.3441 O.3     1  UNL1       -0.4913
      3 C           0.0084    0.0877   -7.1665 C.ar    1  UNL1        0.1659
      4 C          -0.6692    0.4849   -6.0289 C.ar    1  UNL1       -0.0040
      5 C           0.0173    0.6193   -4.8196 C.ar    1  UNL1        0.0438
      6 C           1.3883    0.3569   -4.7646 C.ar    1  UNL1       -0.0040
      7 C           2.0603   -0.0446   -5.9039 C.ar    1  UNL1        0.1659
      8 C           1.3737   -0.1783   -7.1078 C.ar    1  UNL1        0.2035
      9 O           2.0376   -0.5686   -8.2275 O.3     1  UNL1       -0.4885
     10 C           2.6035    0.4627   -9.0388 C.3     1  UNL1        0.0791
     11 O           3.3941   -0.3048   -5.8499 O.3     1  UNL1       -0.4913
     12 C           4.0350   -0.1473   -4.5824 C.3     1  UNL1        0.0790
     13 C          -0.7037    1.0437   -3.6035 C.2     1  UNL1        0.2447
     14 O          -1.8959    1.2767   -3.6537 O.2     1  UNL1       -0.2702
     15 N          -0.0403    1.1731   -2.4374 N.am    1  UNL1       -0.3034
     16 C          -0.7558    1.5943   -1.2305 C.3     1  UNL1        0.0634
     17 H          -1.7652    1.1831   -1.2436 H       1  UNL1        0.0551
     18 C          -0.0127    1.0858    0.0080 C.3     1  UNL1       -0.0248
     19 C          -0.7320    1.5809    1.2658 C.3     1  UNL1       -0.0107
     20 C          -0.8045    3.1094    1.2377 C.3     1  UNL1       -0.0335
     21 C          -0.8263    3.1224   -1.1854 C.3     1  UNL1       -0.0148
     22 H          -2.4678    0.1033   -9.3322 H       1  UNL1        0.0660
     23 H          -2.5621   -0.4225   -7.6343 H       1  UNL1        0.0660
     24 H          -2.2133    1.2796   -8.0209 H       1  UNL1        0.0660
     25 H          -1.7284    0.6907   -6.0749 H       1  UNL1        0.0663
     26 H           1.9221    0.4641   -3.8318 H       1  UNL1        0.0663
     27 H           1.8126    1.1284   -9.3842 H       1  UNL1        0.0660
     28 H           3.3263    1.0305   -8.4528 H       1  UNL1        0.0660
     29 H           3.1034    0.0157   -9.8981 H       1  UNL1        0.0660
     30 H           5.0943   -0.3856   -4.6788 H       1  UNL1        0.0660
     31 H           3.9236    0.8830   -4.2444 H       1  UNL1        0.0660
     32 H           3.5760   -0.8192   -3.8572 H       1  UNL1        0.0660
     33 H           0.9109    0.9872   -2.3974 H       1  UNL1        0.1495
     34 H           0.0021   -0.0041    0.0020 H       1  UNL1        0.0287
     35 H           1.0095    1.4640    0.0003 H       1  UNL1        0.0287
     36 H          -1.7412    1.1700    1.2935 H       1  UNL1        0.0317
     37 H          -0.1826    1.2579    2.1501 H       1  UNL1        0.0317
     38 H           0.2052    3.5198    1.2252 H       1  UNL1        0.0814
     39 H          -1.3298    3.4642    2.1244 H       1  UNL1        0.0814
     40 H           0.1835    3.5327   -1.1866 H       1  UNL1        0.0832
     41 H          -1.3673    3.4869   -2.0587 H       1  UNL1        0.0832
     42 N          -1.5353    3.5520    0.0349 N.4     1  UNL1        0.2283
     43 H          -1.6080    4.5761    0.0411 H       1  UNL1        0.2014
     44 H          -2.4767    3.1420    0.0412 H       1  UNL1        0.2014
@<TRIPOS>UNITY_ATOM_ATTR
42 1
charge 1
@<TRIPOS>BOND
     1     1     2    1
     2     1    22    1
     3     1    23    1
     4     1    24    1
     5     2     3    1
     6     3     8   ar
     7     3     4   ar
     8     4     5   ar
     9     4    25    1
    10     5     6   ar
    11     5    13    1
    12     6     7   ar
    13     6    26    1
    14     7     8   ar
    15     7    11    1
    16     8     9    1
    17     9    10    1
    18    10    27    1
    19    10    28    1
    20    10    29    1
    21    11    12    1
    22    12    30    1
    23    12    31    1
    24    12    32    1
    25    13    14    2
    26    13    15   am
    27    15    16    1
    28    15    33    1
    29    16    17    1
    30    16    21    1
    31    16    18    1
    32    18    19    1
    33    18    34    1
    34    18    35    1
    35    19    20    1
    36    19    36    1
    37    19    37    1
    38    20    38    1
    39    20    39    1
    40    20    42    1
    41    21    40    1
    42    21    41    1
    43    21    42    1
    44    42    43    1
    45    42    44    1
