@<TRIPOS>MOLECULE
ZINC03830639
 62 65 0 0 0
SMALL
GASTEIGER

@<TRIPOS>ATOM
      1 C          -7.0405   -0.7617   -0.3113 C.3     1  UNL1       -0.0621
      2 C          -6.7827   -1.3665    1.0703 C.3     1  UNL1       -0.0398
      3 H          -6.1924   -2.2766    0.9641 H       1  UNL1        0.0301
      4 C          -8.1182   -1.6998    1.7384 C.3     1  UNL1       -0.0451
      5 C          -8.8270   -2.7972    0.9420 C.3     1  UNL1       -0.0130
      6 C         -10.1423   -3.1256    1.6000 C.2     1  UNL1        0.0418
      7 O         -10.4784   -2.5417    2.6030 O.co2   1  UNL1       -0.5498
      8 C          -6.0191   -0.3616    1.9317 C.3     1  UNL1       -0.0261
      9 H          -6.5993    0.5438    2.0809 H       1  UNL1        0.0313
     10 C          -5.6295   -0.9989    3.2896 C.3     1  UNL1       -0.0488
     11 C          -4.1041   -0.7493    3.4706 C.3     1  UNL1       -0.0484
     12 C          -3.8348    0.3984    2.4953 C.3     1  UNL1       -0.0189
     13 H          -4.3233    1.2968    2.9323 H       1  UNL1        0.0317
     14 C          -4.6746   -0.0196    1.2689 C.3     1  UNL1        0.0327
     15 C          -4.7161    1.1074    0.2863 C.2     1  UNL1        0.1400
     16 O          -5.6757    1.3015   -0.4367 O.2     1  UNL1       -0.2968
     17 C          -3.4820    2.0082    0.2360 C.3     1  UNL1        0.0104
     18 C          -2.2828    1.1928    0.7024 C.3     1  UNL1       -0.0189
     19 H          -2.2351    0.2851    0.1022 H       1  UNL1        0.0317
     20 C          -2.4370    0.7833    2.1672 C.3     1  UNL1        0.0249
     21 H          -2.1766    1.5844    2.7061 H       1  UNL1        0.0383
     22 C          -1.3720   -0.2332    2.4913 C.2     1  UNL1        0.1373
     23 O          -1.5600   -1.2044    3.1766 O.2     1  UNL1       -0.2971
     24 C           0.0048    0.0546    1.8934 C.3     1  UNL1        0.0098
     25 C           0.0306    1.5477    1.5776 C.3     1  UNL1       -0.0220
     26 H          -0.2902    2.0819    2.4854 H       1  UNL1        0.0314
     27 C          -0.9566    1.8938    0.4677 C.3     1  UNL1       -0.0242
     28 C          -1.1033    3.4054    0.3544 C.3     1  UNL1       -0.0404
     29 C           0.2483    4.0355   -0.0008 C.3     1  UNL1        0.0063
     30 C           1.3251    3.5301    0.9271 C.2     1  UNL1        0.1337
     31 O           2.1081    4.3028    1.4298 O.2     1  UNL1       -0.2974
     32 C           1.4263    2.0476    1.2241 C.3     1  UNL1        0.0095
     33 C          -0.4209    1.3616   -0.8625 C.3     1  UNL1       -0.0590
     34 C          -4.1388   -1.2942    0.6140 C.3     1  UNL1       -0.0523
     35 H          -7.5853   -1.4785   -0.9257 H       1  UNL1        0.0233
     36 H          -7.6309    0.1484   -0.2051 H       1  UNL1        0.0233
     37 H          -6.0891   -0.5243   -0.7872 H       1  UNL1        0.0233
     38 H          -7.9387   -2.0474    2.7557 H       1  UNL1        0.0271
     39 H          -8.7441   -0.8078    1.7643 H       1  UNL1        0.0271
     40 H          -9.0064   -2.4496   -0.0754 H       1  UNL1        0.0325
     41 H          -8.2010   -3.6892    0.9161 H       1  UNL1        0.0325
     42 H          -6.1840   -0.5271    4.0993 H       1  UNL1        0.0268
     43 H          -5.8305   -2.0697    3.2709 H       1  UNL1        0.0268
     44 H          -3.8877   -0.4412    4.4959 H       1  UNL1        0.0268
     45 H          -3.5395   -1.6420    3.2146 H       1  UNL1        0.0268
     46 H          -3.6194    2.7956    0.8369 H       1  UNL1        0.0345
     47 H          -3.3248    2.3541   -0.7898 H       1  UNL1        0.0345
     48 H           0.1327   -0.4980    1.0699 H       1  UNL1        0.0345
     49 H           0.7758   -0.1842    2.6275 H       1  UNL1        0.0345
     50 H          -1.8296    3.6458   -0.4273 H       1  UNL1        0.0275
     51 H          -1.4619    3.8126    1.3033 H       1  UNL1        0.0275
     52 H           0.1912    5.0283    0.1044 H       1  UNL1        0.0342
     53 H           0.5130    3.8254   -1.0355 H       1  UNL1        0.0342
     54 H           2.0384    1.9049    2.0019 H       1  UNL1        0.0345
     55 H           1.8451    1.5115    0.3777 H       1  UNL1        0.0345
     56 H          -0.3036    0.2797   -0.8003 H       1  UNL1        0.0235
     57 H           0.5450    1.8201   -1.0747 H       1  UNL1        0.0235
     58 H          -1.1221    1.6058   -1.6605 H       1  UNL1        0.0235
     59 H          -3.0894   -1.1555    0.3539 H       1  UNL1        0.0239
     60 H          -4.2337   -2.1277    1.3099 H       1  UNL1        0.0239
     61 H          -4.7117   -1.5073   -0.2885 H       1  UNL1        0.0239
     62 O         -10.9406   -4.0666    1.0719 O.co2   1  UNL1       -0.5498
@<TRIPOS>UNITY_ATOM_ATTR
62 1
charge -1
@<TRIPOS>BOND
     1     1     2    1
     2     1    35    1
     3     1    36    1
     4     1    37    1
     5     2     3    1
     6     2     4    1
     7     2     8    1
     8     4     5    1
     9     4    38    1
    10     4    39    1
    11     5     6    1
    12     5    40    1
    13     5    41    1
    14     6     7   ar
    15     6    62   ar
    16     8     9    1
    17     8    14    1
    18     8    10    1
    19    10    11    1
    20    10    42    1
    21    10    43    1
    22    11    12    1
    23    11    44    1
    24    11    45    1
    25    12    13    1
    26    12    20    1
    27    12    14    1
    28    14    15    1
    29    14    34    1
    30    15    16    2
    31    15    17    1
    32    17    18    1
    33    17    46    1
    34    17    47    1
    35    18    19    1
    36    18    27    1
    37    18    20    1
    38    20    21    1
    39    20    22    1
    40    22    23    2
    41    22    24    1
    42    24    25    1
    43    24    48    1
    44    24    49    1
    45    25    26    1
    46    25    32    1
    47    25    27    1
    48    27    28    1
    49    27    33    1
    50    28    29    1
    51    28    50    1
    52    28    51    1
    53    29    30    1
    54    29    52    1
    55    29    53    1
    56    30    31    2
    57    30    32    1
    58    32    54    1
    59    32    55    1
    60    33    56    1
    61    33    57    1
    62    33    58    1
    63    34    59    1
    64    34    60    1
    65    34    61    1
