@<TRIPOS>MOLECULE
ZINC03831233
 80 83 0 0 0
SMALL
GASTEIGER

@<TRIPOS>ATOM
      1 C           0.8497  -12.0521   -0.6475 C.3     1  UNL1       -0.0327
      2 C           0.8428  -11.5011   -2.0502 C.ar    1  UNL1        0.0343
      3 C           1.2260  -12.3026   -3.1132 C.ar    1  UNL1        0.1304
      4 C           1.2239  -11.8025   -4.4128 C.ar    1  UNL1       -0.0187
      5 C           0.8421  -10.5140   -4.6566 C.ar    1  UNL1       -0.0440
      6 C           0.4517   -9.6924   -3.5954 C.ar    1  UNL1        0.0613
      7 C           0.4519  -10.1905   -2.2807 C.ar    1  UNL1        0.1490
      8 O           0.0736   -9.3957   -1.2566 O.2     1  UNL1       -0.4203
      9 C          -0.3098   -8.1240   -1.4507 C.ar    1  UNL1        0.3625
     10 O          -0.6418   -7.4512   -0.4902 O.2     1  UNL1       -0.2430
     11 C          -0.3389   -7.5471   -2.7348 C.ar    1  UNL1        0.1617
     12 C           0.0300   -8.3049   -3.8298 C.ar    1  UNL1        0.1557
     13 O           0.0084   -7.7832   -5.0794 O.3     1  UNL1       -0.5040
     14 N          -0.7456   -6.2127   -2.9021 N.am    1  UNL1       -0.2729
     15 C           0.1678   -5.2220   -2.8795 C.2     1  UNL1        0.2485
     16 O           1.3308   -5.4727   -2.6267 O.2     1  UNL1       -0.2698
     17 C          -0.2431   -3.8328   -3.1614 C.ar    1  UNL1        0.0375
     18 C          -1.5789   -3.5427   -3.4525 C.ar    1  UNL1       -0.0462
     19 C          -1.9582   -2.2455   -3.7154 C.ar    1  UNL1       -0.0192
     20 C          -1.0155   -1.2242   -3.6859 C.ar    1  UNL1        0.1203
     21 C           0.3148   -1.5093   -3.4025 C.ar    1  UNL1       -0.0015
     22 C           0.7023   -2.8043   -3.1384 C.ar    1  UNL1       -0.0427
     23 C           1.3337   -0.3992   -3.3780 C.3     1  UNL1       -0.0058
     24 C           1.7498   -0.0681   -4.7881 C.2     1  UNL1       -0.0809
     25 C           1.6508    1.1616   -5.2286 C.2     1  UNL1       -0.0793
     26 C           2.0670    1.4927   -6.6387 C.3     1  UNL1       -0.0440
     27 C           1.1150    2.2440   -4.3273 C.3     1  UNL1       -0.0440
     28 O          -1.3944    0.0541   -3.9398 O.3     1  UNL1       -0.5065
     29 O           1.6081  -13.5856   -2.8859 O.3     1  UNL1       -0.4604
     30 C           1.9929  -14.3592   -4.0241 C.3     1  UNL1        0.2320
     31 H           1.2282  -14.2752   -4.7962 H       1  UNL1        0.1085
     32 C           2.1470  -15.8266   -3.6156 C.3     1  UNL1        0.1565
     33 H           2.8824  -15.9065   -2.8150 H       1  UNL1        0.0694
     34 C           2.6177  -16.6387   -4.8261 C.3     1  UNL1        0.1648
     35 H           1.8598  -16.5996   -5.6084 H       1  UNL1        0.0790
     36 C           3.9268  -16.0407   -5.3505 C.3     1  UNL1        0.1262
     37 H           4.2402  -16.5784   -6.2454 H       1  UNL1        0.0663
     38 C           3.7040  -14.5651   -5.6919 C.3     1  UNL1        0.0976
     39 O           3.2378  -13.8741   -4.5312 O.3     1  UNL1       -0.3307
     40 C           5.0221  -13.9450   -6.1598 C.3     1  UNL1       -0.0334
     41 C           2.6621  -14.4510   -6.8065 C.3     1  UNL1       -0.0334
     42 O           4.9381  -16.1512   -4.3469 O.3     1  UNL1       -0.3732
     43 C           5.6925  -17.3631   -4.4129 C.3     1  UNL1        0.0371
     44 O           2.8383  -18.0180   -4.4296 O.3     1  UNL1       -0.4417
     45 C           1.7912  -18.8583   -4.5317 C.2     1  UNL1        0.3981
     46 O           0.7224  -18.4501   -4.9410 O.2     1  UNL1       -0.2267
     47 N           1.9286  -20.1520   -4.1800 N.am    1  UNL1       -0.2950
     48 O           0.8891  -16.3307   -3.1622 O.3     1  UNL1       -0.3818
     49 H          -0.1211  -12.4956   -0.4266 H       1  UNL1        0.0280
     50 H           1.6252  -12.8130   -0.5598 H       1  UNL1        0.0280
     51 H           1.0501  -11.2461    0.0585 H       1  UNL1        0.0280
     52 H           1.5255  -12.4373   -5.2328 H       1  UNL1        0.0654
     53 H           0.8422  -10.1310   -5.6664 H       1  UNL1        0.0627
     54 H           0.8385   -7.3646   -5.3453 H       1  UNL1        0.2923
     55 H          -1.6838   -6.0045   -3.0339 H       1  UNL1        0.1554
     56 H          -2.3126   -4.3350   -3.4715 H       1  UNL1        0.0626
     57 H          -2.9902   -2.0204   -3.9404 H       1  UNL1        0.0654
     58 H           1.7354   -3.0244   -2.9136 H       1  UNL1        0.0629
     59 H           2.2056   -0.7188   -2.8074 H       1  UNL1        0.0357
     60 H           0.8976    0.4839   -2.9111 H       1  UNL1        0.0357
     61 H           2.1296   -0.8447   -5.4355 H       1  UNL1        0.0575
     62 H           1.2127    1.3784   -7.3059 H       1  UNL1        0.0274
     63 H           2.4251    2.5214   -6.6798 H       1  UNL1        0.0274
     64 H           2.8641    0.8177   -6.9502 H       1  UNL1        0.0274
     65 H           1.7504    2.3304   -3.4458 H       1  UNL1        0.0274
     66 H           1.1071    3.1928   -4.8639 H       1  UNL1        0.0274
     67 H           0.1000    1.9918   -4.0203 H       1  UNL1        0.0274
     68 H          -1.3475    0.3001   -4.8738 H       1  UNL1        0.2921
     69 H           5.3781  -14.4728   -7.0446 H       1  UNL1        0.0258
     70 H           4.8633  -12.8944   -6.4029 H       1  UNL1        0.0258
     71 H           5.7640  -14.0260   -5.3654 H       1  UNL1        0.0258
     72 H           1.7231  -14.8924   -6.4727 H       1  UNL1        0.0258
     73 H           2.5036  -13.4003   -7.0495 H       1  UNL1        0.0258
     74 H           3.0174  -14.9790   -7.6915 H       1  UNL1        0.0258
     75 H           6.4388  -17.3701   -3.6185 H       1  UNL1        0.0524
     76 H           5.0233  -18.2147   -4.2903 H       1  UNL1        0.0524
     77 H           6.1907  -17.4287   -5.3801 H       1  UNL1        0.0524
     78 H           2.7819  -20.4778   -3.8533 H       1  UNL1        0.1482
     79 H           1.1743  -20.7574   -4.2536 H       1  UNL1        0.1482
     80 H           0.5283  -15.8589   -2.3991 H       1  UNL1        0.2102
@<TRIPOS>BOND
     1     1     2    1
     2     1    49    1
     3     1    50    1
     4     1    51    1
     5     2     7   ar
     6     2     3   ar
     7     3     4   ar
     8     3    29    1
     9     4     5   ar
    10     4    52    1
    11     5     6   ar
    12     5    53    1
    13     6    12   ar
    14     6     7   ar
    15     7     8   ar
    16     8     9   ar
    17     9    10    2
    18     9    11   ar
    19    11    12   ar
    20    11    14    1
    21    12    13    1
    22    13    54    1
    23    14    15   am
    24    14    55    1
    25    15    16    2
    26    15    17    1
    27    17    22   ar
    28    17    18   ar
    29    18    19   ar
    30    18    56    1
    31    19    20   ar
    32    19    57    1
    33    20    21   ar
    34    20    28    1
    35    21    22   ar
    36    21    23    1
    37    22    58    1
    38    23    24    1
    39    23    59    1
    40    23    60    1
    41    24    25    2
    42    24    61    1
    43    25    26    1
    44    25    27    1
    45    26    62    1
    46    26    63    1
    47    26    64    1
    48    27    65    1
    49    27    66    1
    50    27    67    1
    51    28    68    1
    52    29    30    1
    53    30    31    1
    54    30    39    1
    55    30    32    1
    56    32    33    1
    57    32    34    1
    58    32    48    1
    59    34    35    1
    60    34    36    1
    61    34    44    1
    62    36    37    1
    63    36    38    1
    64    36    42    1
    65    38    39    1
    66    38    40    1
    67    38    41    1
    68    40    69    1
    69    40    70    1
    70    40    71    1
    71    41    72    1
    72    41    73    1
    73    41    74    1
    74    42    43    1
    75    43    75    1
    76    43    76    1
    77    43    77    1
    78    44    45    1
    79    45    46    2
    80    45    47   am
    81    47    78    1
    82    47    79    1
    83    48    80    1
