@<TRIPOS>MOLECULE
ZINC14613094
 52 53 0 0 0
SMALL
GASTEIGER

@<TRIPOS>ATOM
      1 C           1.4167    2.0553   -0.0004 C.3     1  UNL1        0.0381
      2 C           2.1328    1.5619   -1.2592 C.3     1  UNL1        0.0100
      3 H           1.6057    1.9230   -2.1423 H       1  UNL1        0.0878
      4 C           2.1536    0.0321   -1.2676 C.3     1  UNL1        0.1260
      5 H           2.6638   -0.3194   -2.1644 H       1  UNL1        0.0677
      6 C           0.7182   -0.4975   -1.2568 C.3     1  UNL1        0.1177
      7 H           0.7330   -1.5874   -1.2628 H       1  UNL1        0.0649
      8 C           0.0021   -0.0041    0.0020 C.3     1  UNL1        0.1326
      9 H           0.5293   -0.3651    0.8851 H       1  UNL1        0.0681
     10 C          -0.0187    1.5258    0.0104 C.3     1  UNL1        0.0104
     11 H          -0.5459    1.8868   -0.8726 H       1  UNL1        0.0878
     12 O          -1.3386   -0.4987    0.0122 O.3     1  UNL1       -0.3347
     13 C          -1.4863   -1.7640    0.6595 C.3     1  UNL1        0.2061
     14 H          -1.0841   -1.7041    1.6708 H       1  UNL1        0.0970
     15 C          -2.9702   -2.1356    0.7215 C.3     1  UNL1        0.0568
     16 H          -3.0872   -3.0806    1.2519 H       1  UNL1        0.0927
     17 C          -3.5132   -2.2765   -0.7039 C.3     1  UNL1        0.1305
     18 H          -4.5552   -2.5941   -0.6674 H       1  UNL1        0.0679
     19 C          -2.6827   -3.3226   -1.4538 C.3     1  UNL1        0.1176
     20 H          -3.0277   -3.3903   -2.4855 H       1  UNL1        0.0649
     21 C          -1.2100   -2.9052   -1.4317 C.3     1  UNL1        0.1296
     22 H          -1.0936   -1.9550   -1.9528 H       1  UNL1        0.0678
     23 O          -0.7771   -2.7621   -0.0773 O.3     1  UNL1       -0.3351
     24 C          -0.3659   -3.9752   -2.1270 C.3     1  UNL1       -0.0058
     25 O          -2.8284   -4.5937   -0.8173 O.3     1  UNL1       -0.3862
     26 O          -3.4198   -1.0196   -1.3774 O.3     1  UNL1       -0.3834
     27 O           0.0271   -0.0241   -2.4145 O.3     1  UNL1       -0.3862
     28 O           2.8447   -0.4413   -0.1099 O.3     1  UNL1       -0.3835
     29 H           1.4019    3.1452    0.0056 H       1  UNL1        0.0377
     30 H           1.9439    1.6943    0.8826 H       1  UNL1        0.0377
     31 H          -0.7332    3.0077    1.2480 H       1  UNL1        0.1998
     32 H          -1.6353    1.6110    1.2823 H       1  UNL1        0.1998
     33 H          -0.4820   -4.9253   -1.6055 H       1  UNL1        0.0840
     34 H          -0.6969   -4.0848   -3.1597 H       1  UNL1        0.0840
     35 H           1.6259   -4.2654   -2.5593 H       1  UNL1        0.1995
     36 H           1.1718   -2.6659   -2.5264 H       1  UNL1        0.1995
     37 H          -3.7389   -4.9183   -0.7909 H       1  UNL1        0.2100
     38 H          -3.7468   -1.0357   -2.2873 H       1  UNL1        0.2102
     39 H          -3.3674   -0.9663    2.3687 H       1  UNL1        0.2000
     40 H          -3.6729   -0.2106    0.9191 H       1  UNL1        0.2000
     41 H           0.4265   -0.2995   -3.2510 H       1  UNL1        0.2100
     42 H           2.8966   -1.4050   -0.0495 H       1  UNL1        0.2102
     43 H           3.5242    3.0793   -1.2644 H       1  UNL1        0.1998
     44 H           4.0398    1.6978   -0.4953 H       1  UNL1        0.1998
     45 N          -0.6909    1.9900    1.2368 N.4     1  UNL1        0.2228
     46 H          -0.1608    1.6677    2.0549 H       1  UNL1        0.1998
     47 N           1.0512   -3.5739   -2.0807 N.4     1  UNL1        0.2204
     48 H           1.3517   -3.5087   -1.1010 H       1  UNL1        0.1995
     49 N          -3.7344   -1.0916    1.4268 N.4     1  UNL1        0.2263
     50 H          -4.7192   -1.3761    1.4860 H       1  UNL1        0.2000
     51 N           3.5189    2.0610   -1.2918 N.4     1  UNL1        0.2228
     52 H           3.9704    1.7469   -2.1588 H       1  UNL1        0.1998
@<TRIPOS>UNITY_ATOM_ATTR
45 1
charge 1
47 1
charge 1
49 1
charge 1
51 1
charge 1
@<TRIPOS>BOND
     1     1    10    1
     2     1     2    1
     3     1    29    1
     4     1    30    1
     5     2     3    1
     6     2     4    1
     7     2    51    1
     8     4     5    1
     9     4     6    1
    10     4    28    1
    11     6     7    1
    12     6     8    1
    13     6    27    1
    14     8     9    1
    15     8    10    1
    16     8    12    1
    17    10    11    1
    18    10    45    1
    19    12    13    1
    20    13    14    1
    21    13    23    1
    22    13    15    1
    23    15    16    1
    24    15    17    1
    25    15    49    1
    26    17    18    1
    27    17    19    1
    28    17    26    1
    29    19    20    1
    30    19    21    1
    31    19    25    1
    32    21    22    1
    33    21    23    1
    34    21    24    1
    35    24    33    1
    36    24    34    1
    37    24    47    1
    38    25    37    1
    39    26    38    1
    40    27    41    1
    41    28    42    1
    42    31    45    1
    43    32    45    1
    44    35    47    1
    45    36    47    1
    46    39    49    1
    47    40    49    1
    48    43    51    1
    49    44    51    1
    50    45    46    1
    51    47    48    1
    52    49    50    1
    53    51    52    1
