@<TRIPOS>MOLECULE
ZINC03830337
 65 69 0 0 0
SMALL
GASTEIGER

@<TRIPOS>ATOM
      1 C           0.6215    3.0402   -6.6125 C.3     1  UNL1       -0.0651
      2 C          -0.1839    2.2884   -5.5509 C.3     1  UNL1       -0.0513
      3 C          -0.6836    3.2766   -4.4952 C.3     1  UNL1       -0.0018
      4 C          -1.4890    2.5248   -3.4335 C.3     1  UNL1        0.1610
      5 H          -2.2937    1.9644   -3.9094 H       1  UNL1        0.0910
      6 O          -0.6149    1.6114   -2.7046 O.3     1  UNL1       -0.3448
      7 C          -1.1681    1.6380   -1.4015 C.3     1  UNL1        0.0984
      8 H          -2.1108    1.0934   -1.3486 H       1  UNL1        0.0630
      9 C          -0.3249    1.4091   -0.1549 C.3     1  UNL1       -0.0196
     10 C          -1.1055    2.2532    0.9183 C.3     1  UNL1       -0.0268
     11 H          -0.4066    2.6669    1.6452 H       1  UNL1        0.0311
     12 C          -2.0682    1.2942    1.5979 C.3     1  UNL1       -0.0310
     13 H          -1.5438    0.8496    2.4438 H       1  UNL1        0.0308
     14 C          -2.4415    0.1722    0.6289 C.3     1  UNL1       -0.0458
     15 C          -3.3284   -0.8719    1.3250 C.3     1  UNL1       -0.0302
     16 C          -4.5216   -0.1165    1.8822 C.2     1  UNL1       -0.0559
     17 C          -5.7559   -0.4361    1.5326 C.2     1  UNL1       -0.0149
     18 C          -6.8827    0.3853    2.0153 C.2     1  UNL1        0.1787
     19 O          -7.9817    0.3009    1.4997 O.2     1  UNL1       -0.2879
     20 C          -6.6439    1.3113    3.1376 C.2     1  UNL1       -0.0180
     21 C          -5.3943    1.5915    3.4970 C.2     1  UNL1       -0.0701
     22 C          -4.2082    1.0047    2.8320 C.3     1  UNL1        0.0131
     23 C          -3.3071    2.0081    2.1302 C.3     1  UNL1        0.0007
     24 H          -3.0073    2.7914    2.8264 H       1  UNL1        0.0340
     25 C          -4.0366    2.6333    0.9354 C.3     1  UNL1        0.0600
     26 H          -5.0061    3.0174    1.2526 H       1  UNL1        0.0596
     27 C          -3.1681    3.7773    0.4209 C.3     1  UNL1       -0.0177
     28 C          -1.7636    3.3813    0.1290 C.3     1  UNL1        0.0121
     29 C          -1.3808    3.1958   -1.2917 C.3     1  UNL1        0.1637
     30 O          -2.0465    3.4711   -2.4756 O.3     1  UNL1       -0.3342
     31 C           0.0030    3.7719   -1.4474 C.2     1  UNL1        0.1931
     32 O           0.9707    3.0957   -1.1933 O.2     1  UNL1       -0.2918
     33 C           0.1792    5.1920   -1.9202 C.3     1  UNL1        0.1053
     34 O           1.5684    5.4571   -2.1244 O.3     1  UNL1       -0.3874
     35 C          -0.9428    4.6027    0.5478 C.3     1  UNL1       -0.0561
     36 O          -4.2137    1.6569   -0.0929 O.3     1  UNL1       -0.3914
     37 C          -3.3671    0.3892    3.9521 C.3     1  UNL1       -0.0520
     38 H           0.9776    2.3362   -7.3646 H       1  UNL1        0.0230
     39 H          -0.0128    3.7889   -7.0871 H       1  UNL1        0.0230
     40 H           1.4735    3.5311   -6.1422 H       1  UNL1        0.0230
     41 H           0.4504    1.5397   -5.0763 H       1  UNL1        0.0264
     42 H          -1.0358    1.7975   -6.0212 H       1  UNL1        0.0264
     43 H          -1.3179    4.0254   -4.9697 H       1  UNL1        0.0314
     44 H           0.1684    3.7676   -4.0248 H       1  UNL1        0.0314
     45 H          -0.3075    0.3534    0.1161 H       1  UNL1        0.0294
     46 H           0.6865    1.7915   -0.2921 H       1  UNL1        0.0294
     47 H          -2.9814    0.5943   -0.2187 H       1  UNL1        0.0271
     48 H          -1.5323   -0.3104    0.2705 H       1  UNL1        0.0271
     49 H          -3.6619   -1.6191    0.6049 H       1  UNL1        0.0310
     50 H          -2.7775   -1.3506    2.1346 H       1  UNL1        0.0310
     51 H          -5.9379   -1.2912    0.8985 H       1  UNL1        0.0655
     52 H          -7.4754    1.7579    3.6625 H       1  UNL1        0.0653
     53 H          -5.2370    2.2806    4.3136 H       1  UNL1        0.0582
     54 H          -3.1577    4.5699    1.1691 H       1  UNL1        0.0297
     55 H          -3.6164    4.1682   -0.4925 H       1  UNL1        0.0297
     56 H          -0.3146    5.3207   -2.7802 H       1  UNL1        0.0637
     57 H          -0.2148    5.8765   -1.1690 H       1  UNL1        0.0637
     58 H           1.7567    6.3550   -2.4300 H       1  UNL1        0.2100
     59 H          -1.2132    5.4539   -0.0770 H       1  UNL1        0.0236
     60 H          -1.1489    4.8384    1.5919 H       1  UNL1        0.0236
     61 H           0.1186    4.3859    0.4270 H       1  UNL1        0.0236
     62 H          -4.6413    1.9986   -0.8901 H       1  UNL1        0.2098
     63 H          -3.0443    1.1734    4.6369 H       1  UNL1        0.0241
     64 H          -3.9647   -0.3435    4.4945 H       1  UNL1        0.0241
     65 H          -2.4932   -0.1008    3.5229 H       1  UNL1        0.0241
@<TRIPOS>BOND
     1     1     2    1
     2     1    38    1
     3     1    39    1
     4     1    40    1
     5     2     3    1
     6     2    41    1
     7     2    42    1
     8     3     4    1
     9     3    43    1
    10     3    44    1
    11     4     5    1
    12     4    30    1
    13     4     6    1
    14     6     7    1
    15     7     8    1
    16     7    29    1
    17     7     9    1
    18     9    10    1
    19     9    45    1
    20     9    46    1
    21    10    11    1
    22    10    28    1
    23    10    12    1
    24    12    13    1
    25    12    23    1
    26    12    14    1
    27    14    15    1
    28    14    47    1
    29    14    48    1
    30    15    16    1
    31    15    49    1
    32    15    50    1
    33    16    22    1
    34    16    17    2
    35    17    18    1
    36    17    51    1
    37    18    19    2
    38    18    20    1
    39    20    21    2
    40    20    52    1
    41    21    22    1
    42    21    53    1
    43    22    23    1
    44    22    37    1
    45    23    24    1
    46    23    25    1
    47    25    26    1
    48    25    27    1
    49    25    36    1
    50    27    28    1
    51    27    54    1
    52    27    55    1
    53    28    29    1
    54    28    35    1
    55    29    30    1
    56    29    31    1
    57    31    32    2
    58    31    33    1
    59    33    34    1
    60    33    56    1
    61    33    57    1
    62    34    58    1
    63    35    59    1
    64    35    60    1
    65    35    61    1
    66    36    62    1
    67    37    63    1
    68    37    64    1
    69    37    65    1
