@<TRIPOS>MOLECULE
ZINC00000746
 36 36 0 0 0
SMALL
GASTEIGER

@<TRIPOS>ATOM
      1 C           1.4175    1.9944   -0.0008 C.3     1  UNL1       -0.0193
      2 C          -0.0178    1.4648    0.0101 C.3     1  UNL1       -0.0203
      3 C          -0.7578    1.9716   -1.2294 C.3     1  UNL1       -0.0193
      4 C          -0.7340    1.9582    1.2689 C.3     1  UNL1       -0.0193
      5 C           0.7062   -0.5275    1.1802 C.3     1  UNL1       -0.0023
      6 C           0.7062   -2.0569    1.1367 C.3     1  UNL1        0.1199
      7 H           1.2113   -2.3946    0.2318 H       1  UNL1        0.0698
      8 C           1.4285   -2.5938    2.3454 C.ar    1  UNL1       -0.0072
      9 C           0.7510   -2.7541    3.5390 C.ar    1  UNL1       -0.0141
     10 C           1.4126   -3.2537    4.6519 C.ar    1  UNL1        0.1207
     11 C           2.7571   -3.5810    4.5686 C.ar    1  UNL1        0.0213
     12 C           3.4360   -3.4141    3.3715 C.ar    1  UNL1        0.1207
     13 C           2.7685   -2.9198    2.2597 C.ar    1  UNL1       -0.0141
     14 O           4.7539   -3.7345    3.2866 O.3     1  UNL1       -0.5066
     15 O           0.7443   -3.4167    5.8239 O.3     1  UNL1       -0.5066
     16 O          -0.6410   -2.5334    1.1362 O.3     1  UNL1       -0.3819
     17 H           1.9277    1.6428   -0.8976 H       1  UNL1        0.0287
     18 H           1.4028    3.0842    0.0052 H       1  UNL1        0.0287
     19 H           1.9447    1.6333    0.8823 H       1  UNL1        0.0287
     20 H          -1.7804    1.5943   -1.2217 H       1  UNL1        0.0287
     21 H          -0.7726    3.0615   -1.2234 H       1  UNL1        0.0287
     22 H          -0.2476    1.6201   -2.1262 H       1  UNL1        0.0287
     23 H          -0.2068    1.5971    2.1520 H       1  UNL1        0.0287
     24 H          -0.7488    3.0481    1.2749 H       1  UNL1        0.0287
     25 H          -1.7566    1.5809    1.2766 H       1  UNL1        0.0287
     26 H           1.7338   -0.1640    1.1806 H       1  UNL1        0.0843
     27 H           0.2010   -0.1898    2.0852 H       1  UNL1        0.0843
     28 H          -0.2952   -2.4944    3.6046 H       1  UNL1        0.0658
     29 H           3.2749   -3.9652    5.4351 H       1  UNL1        0.0691
     30 H           3.2969   -2.7896    1.3269 H       1  UNL1        0.0658
     31 H           5.3508   -3.0039    3.4988 H       1  UNL1        0.2921
     32 H           0.7660   -2.6405    6.4003 H       1  UNL1        0.2921
     33 H          -1.1516   -2.2701    1.9140 H       1  UNL1        0.2105
     34 N          -0.0023   -0.0102   -0.0056 N.4     1  UNL1        0.2328
     35 H           0.4759   -0.3348   -0.8543 H       1  UNL1        0.2020
     36 H          -0.9680   -0.3591   -0.0022 H       1  UNL1        0.2020
@<TRIPOS>UNITY_ATOM_ATTR
34 1
charge 1
@<TRIPOS>BOND
     1     1     2    1
     2     1    17    1
     3     1    18    1
     4     1    19    1
     5     2     3    1
     6     2     4    1
     7     2    34    1
     8     3    20    1
     9     3    21    1
    10     3    22    1
    11     4    23    1
    12     4    24    1
    13     4    25    1
    14     5     6    1
    15     5    26    1
    16     5    27    1
    17     5    34    1
    18     6     7    1
    19     6     8    1
    20     6    16    1
    21     8    13   ar
    22     8     9   ar
    23     9    10   ar
    24     9    28    1
    25    10    11   ar
    26    10    15    1
    27    11    12   ar
    28    11    29    1
    29    12    13   ar
    30    12    14    1
    31    13    30    1
    32    14    31    1
    33    15    32    1
    34    16    33    1
    35    34    35    1
    36    34    36    1
