@<TRIPOS>MOLECULE
ZINC00000452
 29 30 0 0 0
SMALL
GASTEIGER

@<TRIPOS>ATOM
      1 C          -2.4179    4.1971    6.8019 C.3     1  UNL1        0.0790
      2 O          -1.8400    3.7318    5.5806 O.3     1  UNL1       -0.4915
      3 C          -0.5781    4.1512    5.2956 C.ar    1  UNL1        0.1615
      4 C           0.0910    4.9873    6.1749 C.ar    1  UNL1       -0.0163
      5 C           1.3715    5.4173    5.8809 C.ar    1  UNL1       -0.0581
      6 C           1.9896    5.0104    4.7131 C.ar    1  UNL1       -0.0581
      7 C           1.3298    4.1717    3.8342 C.ar    1  UNL1       -0.0163
      8 C           0.0461    3.7370    4.1229 C.ar    1  UNL1        0.1621
      9 O          -0.6043    2.9119    3.2594 O.3     1  UNL1       -0.4846
     10 C           0.0959    2.5324    2.0729 C.3     1  UNL1        0.1281
     11 C          -0.7887    1.6099    1.2318 C.3     1  UNL1        0.1538
     12 H          -1.1583    0.7799    1.8340 H       1  UNL1        0.0785
     13 C          -0.0127    1.0858    0.0080 C.3     1  UNL1        0.0551
     14 N          -0.7755    1.5985   -1.1404 N.am    1  UNL1       -0.2775
     15 C          -1.8219    2.3020   -0.6867 C.2     1  UNL1        0.4008
     16 O          -2.6262    2.8419   -1.4203 O.2     1  UNL1       -0.2265
     17 O          -1.9006    2.3550    0.6476 O.3     1  UNL1       -0.4421
     18 H          -3.4233    3.7892    6.9067 H       1  UNL1        0.0660
     19 H          -1.8042    3.8710    7.6417 H       1  UNL1        0.0660
     20 H          -2.4671    5.2859    6.7890 H       1  UNL1        0.0660
     21 H          -0.3896    5.3067    7.0878 H       1  UNL1        0.0655
     22 H           1.8901    6.0729    6.5648 H       1  UNL1        0.0619
     23 H           2.9902    5.3482    4.4871 H       1  UNL1        0.0619
     24 H           1.8150    3.8549    2.9228 H       1  UNL1        0.0655
     25 H           1.0128    2.0090    2.3437 H       1  UNL1        0.0734
     26 H           0.3431    3.4237    1.4962 H       1  UNL1        0.0734
     27 H           0.0021   -0.0041    0.0020 H       1  UNL1        0.0501
     28 H           1.0029    1.4815    0.0004 H       1  UNL1        0.0501
     29 H          -0.5570    1.4512   -2.0739 H       1  UNL1        0.1521
@<TRIPOS>BOND
     1     1     2    1
     2     1    18    1
     3     1    19    1
     4     1    20    1
     5     2     3    1
     6     3     8   ar
     7     3     4   ar
     8     4     5   ar
     9     4    21    1
    10     5     6   ar
    11     5    22    1
    12     6     7   ar
    13     6    23    1
    14     7     8   ar
    15     7    24    1
    16     8     9    1
    17     9    10    1
    18    10    11    1
    19    10    25    1
    20    10    26    1
    21    11    12    1
    22    11    17    1
    23    11    13    1
    24    13    14    1
    25    13    27    1
    26    13    28    1
    27    14    15   am
    28    14    29    1
    29    15    16    2
    30    15    17    1
