@<TRIPOS>MOLECULE
ZINC03830392
 42 44 0 0 0
SMALL
GASTEIGER

@<TRIPOS>ATOM
      1 C          -3.5012    7.1962   -0.3475 C.3     1  UNL1       -0.0409
      2 C          -2.8308    5.9057    0.0478 C.2     1  UNL1       -0.0396
      3 CA         -2.3616    5.1714   -0.9495 C.2     1  UNL1        0.0596
      4 N          -1.7673    3.9249   -0.6920 N.am    1  UNL1       -0.2534
      5 C          -1.2080    3.4591    0.6169 C.3     1  UNL1        0.1041
      6 H          -0.2048    3.8005    0.8723 H       1  UNL1        0.0644
      7 CA         -1.2947    2.0587    0.0194 C.3     1  UNL1        0.1285
      8 HA         -2.1118    1.4607    0.4231 H       1  UNL1        0.0622
      9 C          -1.6255    2.7346   -1.3005 C.2     1  UNL1        0.2438
     10 O          -1.7225    2.3523   -2.4475 O.2     1  UNL1       -0.2731
     11 N          -0.0162    1.3436    0.0094 N.am    1  UNL1       -0.2968
     12 C           0.0021   -0.0041    0.0020 C.2     1  UNL1        0.2665
     13 O          -1.0399   -0.6247    0.0086 O.2     1  UNL1       -0.2692
     14 CA          1.3172   -0.7397   -0.0145 C.3     1  UNL1        0.0789
     15 HA          2.0123   -0.2265   -0.6790 H       1  UNL1        0.1002
     16 C           1.8894   -0.7771    1.3792 C.ar    1  UNL1        0.0093
     17 C           1.4175   -1.6998    2.2944 C.ar    1  UNL1       -0.0493
     18 C           1.9444   -1.7399    3.5708 C.ar    1  UNL1       -0.0197
     19 C           2.9394   -0.8455    3.9376 C.ar    1  UNL1        0.1169
     20 C           3.4072    0.0831    3.0192 C.ar    1  UNL1       -0.0197
     21 C           2.8814    0.1150    1.7421 C.ar    1  UNL1       -0.0493
     22 O           3.4548   -0.8787    5.1947 O.3     1  UNL1       -0.5068
     23 S          -2.4845    3.8596    1.8576 S.3     1  UNL1       -0.1312
     24 C          -2.7815    5.6216    1.5137 C.3     1  UNL1        0.0184
     25 C          -2.4634    5.6640   -2.3351 C.2     1  UNL1        0.0859
     26 O          -2.0338    4.9922   -3.2518 O.co2   1  UNL1       -0.5433
     27 H          -3.8460    7.7153    0.5468 H       1  UNL1        0.0275
     28 H          -2.7901    7.8262   -0.8818 H       1  UNL1        0.0275
     29 H          -4.3523    6.9805   -0.9933 H       1  UNL1        0.0275
     30 H           0.8172    1.8399    0.0041 H       1  UNL1        0.1497
     31 H           0.6393   -2.3925    2.0099 H       1  UNL1        0.0623
     32 H           1.5783   -2.4635    4.2842 H       1  UNL1        0.0654
     33 H           4.1820    0.7802    3.3022 H       1  UNL1        0.0654
     34 H           3.2452    0.8377    1.0267 H       1  UNL1        0.0623
     35 H           2.9885   -0.3137    5.8260 H       1  UNL1        0.2921
     36 H1          0.4634   -2.6092    0.1062 H       1  UNL1        0.2005
     37 H2          0.7820   -2.1154   -1.4496 H       1  UNL1        0.2005
     38 H          -3.7298    5.9155    1.9636 H       1  UNL1        0.0423
     39 H          -1.9801    6.2099    1.9607 H       1  UNL1        0.0423
     40 N           1.1283   -2.1210   -0.4916 N.4     1  UNL1        0.2307
     41 H3          2.0286   -2.6139   -0.4637 H       1  UNL1        0.2005
     42 OXT        -3.0331    6.8595   -2.5850 O.co2   1  UNL1       -0.5433
@<TRIPOS>UNITY_ATOM_ATTR
40 1
charge 1
42 1
charge -1
@<TRIPOS>BOND
     1     1     2    1
     2     1    27    1
     3     1    28    1
     4     1    29    1
     5     2    24    1
     6     2     3    2
     7     3     4    1
     8     3    25    1
     9     4     9   am
    10     4     5    1
    11     5     6    1
    12     5     7    1
    13     5    23    1
    14     7     8    1
    15     7     9    1
    16     7    11    1
    17     9    10    2
    18    11    12   am
    19    11    30    1
    20    12    13    2
    21    12    14    1
    22    14    15    1
    23    14    16    1
    24    14    40    1
    25    16    21   ar
    26    16    17   ar
    27    17    18   ar
    28    17    31    1
    29    18    19   ar
    30    18    32    1
    31    19    20   ar
    32    19    22    1
    33    20    21   ar
    34    20    33    1
    35    21    34    1
    36    22    35    1
    37    23    24    1
    38    24    38    1
    39    24    39    1
    40    25    26   ar
    41    25    42   ar
    42    36    40    1
    43    37    40    1
    44    40    41    1
