@<TRIPOS>MOLECULE
ZINC03830317
 31 32 0 0 0
SMALL
GASTEIGER

@<TRIPOS>ATOM
      1 C          -2.0835    1.4601   -1.2005 C.3     1  UNL1        0.0143
      2 C          -1.2206    1.8038    0.0170 C.3     1  UNL1        0.0529
      3 H          -1.7966    1.6181    0.9235 H       1  UNL1        0.0525
      4 C          -0.6801    3.2369    0.0252 C.3     1  UNL1        0.0555
      5 H          -0.9876    3.7512    0.9357 H       1  UNL1        0.0528
      6 C          -1.1055    4.0537   -1.2139 C.3     1  UNL1        0.0255
      7 H          -0.3350    4.0259   -1.9844 H       1  UNL1        0.0431
      8 S          -2.6149    3.1388   -1.7529 S.3     1  UNL1       -0.1536
      9 C          -1.4446    5.4958   -0.8312 C.3     1  UNL1       -0.0394
     10 C          -1.7397    6.3033   -2.0968 C.3     1  UNL1       -0.0517
     11 C          -2.0788    7.7454   -1.7142 C.3     1  UNL1       -0.0479
     12 C          -2.3739    8.5529   -2.9798 C.3     1  UNL1       -0.0132
     13 C          -2.7078    9.9733   -2.6029 C.2     1  UNL1        0.0417
     14 O          -2.7097   10.3056   -1.4412 O.co2   1  UNL1       -0.5498
     15 N           0.7816    3.0675    0.0107 N.am    1  UNL1       -0.2937
     16 C           1.0693    1.7587    0.0013 C.2     1  UNL1        0.3002
     17 O           2.2069    1.3297   -0.0119 O.2     1  UNL1       -0.2528
     18 N          -0.0111    0.9658    0.0074 N.am    1  UNL1       -0.2940
     19 H          -2.9423    0.8505   -0.9194 H       1  UNL1        0.0395
     20 H          -1.4897    0.9650   -1.9688 H       1  UNL1        0.0395
     21 H          -2.3208    5.5032   -0.1829 H       1  UNL1        0.0276
     22 H          -0.5997    5.9404   -0.3053 H       1  UNL1        0.0276
     23 H          -0.8635    6.2959   -2.7451 H       1  UNL1        0.0266
     24 H          -2.5846    5.8587   -2.6227 H       1  UNL1        0.0266
     25 H          -2.9550    7.7528   -1.0659 H       1  UNL1        0.0269
     26 H          -1.2339    8.1900   -1.1882 H       1  UNL1        0.0269
     27 H          -1.4976    8.5454   -3.6281 H       1  UNL1        0.0325
     28 H          -3.2187    8.1083   -3.5057 H       1  UNL1        0.0325
     29 H           1.4320    3.7872    0.0086 H       1  UNL1        0.1506
     30 H           0.0021   -0.0041    0.0020 H       1  UNL1        0.1506
     31 O          -3.0033   10.8692   -3.5577 O.co2   1  UNL1       -0.5498
@<TRIPOS>UNITY_ATOM_ATTR
31 1
charge -1
@<TRIPOS>BOND
     1     1     8    1
     2     1     2    1
     3     1    19    1
     4     1    20    1
     5     2     3    1
     6     2    18    1
     7     2     4    1
     8     4     5    1
     9     4     6    1
    10     4    15    1
    11     6     7    1
    12     6     8    1
    13     6     9    1
    14     9    10    1
    15     9    21    1
    16     9    22    1
    17    10    11    1
    18    10    23    1
    19    10    24    1
    20    11    12    1
    21    11    25    1
    22    11    26    1
    23    12    13    1
    24    12    27    1
    25    12    28    1
    26    13    14   ar
    27    13    31   ar
    28    15    16   am
    29    15    29    1
    30    16    17    2
    31    16    18   am
    32    18    30    1
