@<TRIPOS>MOLECULE
ZINC11592583
 35 37 0 0 0
SMALL
GASTEIGER

@<TRIPOS>ATOM
      1 C           2.0803    3.4529    1.8632 C.ar    1  UNL1        0.0999
      2 N           2.2250    4.7389    2.0001 N.ar    1  UNL1       -0.2357
      3 C           1.9959    5.3512    0.8214 C.ar    1  UNL1        0.1152
      4 C           1.6942    4.3996   -0.0936 C.ar    1  UNL1        0.1621
      5 N           1.7478    3.1866    0.5753 N.ar    1  UNL1       -0.2882
      6 C1*         1.4981    1.8636   -0.0022 C.3     1  UNL1        0.1408
      7 H1*         1.8861    1.8148   -1.0197 H       1  UNL1        0.0840
      8 C2*        -0.0190    1.5488    0.0106 C.3     1  UNL1        0.0213
      9 C3*         0.0021   -0.0041    0.0020 C.3     1  UNL1        0.0876
     10 H3*         0.1031   -0.3851   -1.0142 H       1  UNL1        0.0621
     11 C4*         1.2632   -0.3192    0.8349 C.3     1  UNL1        0.1100
     12 H4*         0.9800   -0.5494    1.8620 H       1  UNL1        0.0646
     13 O4*         2.0998    0.8432    0.8103 O.3     1  UNL1       -0.3484
     14 C5*         2.0070   -1.5071    0.2212 C.3     1  UNL1        0.0729
     15 O5*         3.1063   -1.8660    1.0607 O.3     1  UNL1       -0.3924
     16 O3*        -1.1676   -0.5320    0.6307 O.3     1  UNL1       -0.3890
     17 N           1.3703    4.5030   -1.4027 N.2     1  UNL1       -0.2209
     18 C           1.2436    5.5459   -2.1253 C.2     1  UNL1        0.0837
     19 N           1.4434    6.8209   -1.7335 N.pl3   1  UNL1       -0.3321
     20 C           1.1128    7.3335   -0.4188 C.3     1  UNL1        0.0416
     21 C           2.0910    6.8389    0.6291 C.3     1  UNL1        0.1158
     22 H           1.8774    7.3340    1.5764 H       1  UNL1        0.0676
     23 O           3.4192    7.1719    0.2205 O.3     1  UNL1       -0.3840
     24 H           2.2051    2.7188    2.6455 H       1  UNL1        0.1030
     25 H2*1       -0.5089    1.9400   -0.8811 H       1  UNL1        0.0335
     26 H2*2       -0.4917    1.9303    0.9156 H       1  UNL1        0.0335
     27 H5*1        1.3271   -2.3542    0.1309 H       1  UNL1        0.0584
     28 H5*2        2.3784   -1.2324   -0.7661 H       1  UNL1        0.0584
     29 H5*         3.6241   -2.6138    0.7325 H       1  UNL1        0.2095
     30 H3*        -1.9942   -0.2863    0.1931 H       1  UNL1        0.2099
     31 H           0.9466    5.3932   -3.1524 H       1  UNL1        0.0998
     32 H           1.8345    7.4355   -2.3740 H       1  UNL1        0.1470
     33 H           0.1079    7.0070   -0.1510 H       1  UNL1        0.0491
     34 H           1.1378    8.4229   -0.4440 H       1  UNL1        0.0491
     35 H           3.5607    8.1174    0.0756 H       1  UNL1        0.2104
@<TRIPOS>BOND
     1     1     5   ar
     2     1     2   ar
     3     1    24    1
     4     2     3   ar
     5     3    21    1
     6     3     4   ar
     7     4     5   ar
     8     4    17    1
     9     5     6    1
    10     6     7    1
    11     6    13    1
    12     6     8    1
    13     8     9    1
    14     8    25    1
    15     8    26    1
    16     9    10    1
    17     9    11    1
    18     9    16    1
    19    11    12    1
    20    11    13    1
    21    11    14    1
    22    14    15    1
    23    14    27    1
    24    14    28    1
    25    15    29    1
    26    16    30    1
    27    17    18    2
    28    18    19    1
    29    18    31    1
    30    19    20    1
    31    19    32    1
    32    20    21    1
    33    20    33    1
    34    20    34    1
    35    21    22    1
    36    21    23    1
    37    23    35    1
