@<TRIPOS>MOLECULE
ZINC03831114
 54 55 0 0 0
SMALL
GASTEIGER

@<TRIPOS>ATOM
      1 C          -3.2263    3.8596   -5.0008 C.3     1  UNL1        0.0125
      2 C          -2.7373    3.3192   -3.6817 C.2     1  UNL1        0.2141
      3 O          -1.6348    2.8201   -3.6021 O.2     1  UNL1       -0.2758
      4 N          -3.5252    3.3906   -2.5905 N.am    1  UNL1       -0.2840
      5 C          -3.0307    2.9918   -1.3428 C.ar    1  UNL1        0.0625
      6 C          -2.4391    1.7457   -1.1984 C.ar    1  UNL1        0.0488
      7 C          -1.9508    1.3471    0.0471 C.ar    1  UNL1        0.0665
      8 C          -2.0511    2.2093    1.1407 C.ar    1  UNL1        0.0490
      9 C          -2.6396    3.4553    0.9873 C.ar    1  UNL1        0.0648
     10 C          -3.1286    3.8465   -0.2526 C.ar    1  UNL1        0.0580
     11 I          -4.0155    5.7310   -0.4788 I       1  UNL1       -0.0399
     12 N          -2.7406    4.3206    2.0834 N.am    1  UNL1       -0.2728
     13 C          -1.6630    5.2715    2.3677 C.3     1  UNL1        0.0083
     14 C          -3.8291    4.2787    2.8769 C.2     1  UNL1        0.2165
     15 O          -4.7213    3.4914    2.6416 O.2     1  UNL1       -0.2756
     16 C          -3.9379    5.2101    4.0567 C.3     1  UNL1        0.0127
     17 I          -1.3140    1.6207    3.0114 I       1  UNL1       -0.0410
     18 C          -1.3240    0.0185    0.2063 C.2     1  UNL1        0.2466
     19 O          -2.0039   -0.9417    0.5119 O.2     1  UNL1       -0.2701
     20 N           0.0007   -0.1298    0.0072 N.am    1  UNL1       -0.3010
     21 C           0.6212   -1.4482    0.1591 C.3     1  UNL1        0.1024
     22 H          -0.1323   -2.2235    0.0207 H       1  UNL1        0.0575
     23 C           1.2292   -1.5695    1.5598 C.3     1  UNL1        0.1065
     24 H           0.4568   -1.3952    2.3089 H       1  UNL1        0.0640
     25 C           2.3386   -0.5247    1.7151 C.3     1  UNL1        0.1112
     26 H           2.8133   -0.6396    2.6896 H       1  UNL1        0.0646
     27 C           3.3789   -0.7284    0.6106 C.3     1  UNL1        0.1129
     28 H           3.8344   -1.7129    0.7173 H       1  UNL1        0.0647
     29 O           2.7420   -0.6337   -0.6652 O.3     1  UNL1       -0.3414
     30 C           1.7268   -1.6168   -0.8864 C.3     1  UNL1        0.1776
     31 H           2.1607   -2.6129   -0.7992 H       1  UNL1        0.0928
     32 O           1.1756   -1.4497   -2.1941 O.3     1  UNL1       -0.3654
     33 C           4.4595    0.3489    0.7225 C.3     1  UNL1        0.0730
     34 O           5.4901    0.0909   -0.2332 O.3     1  UNL1       -0.3924
     35 O           1.7788    0.7857    1.6081 O.3     1  UNL1       -0.3865
     36 O           1.7774   -2.8779    1.7314 O.3     1  UNL1       -0.3871
     37 I          -2.2849    0.4605   -2.8457 I       1  UNL1       -0.0411
     38 H          -4.2304    4.2655   -4.8774 H       1  UNL1        0.0323
     39 H          -2.5552    4.6479   -5.3418 H       1  UNL1        0.0323
     40 H          -3.2471    3.0563   -5.7372 H       1  UNL1        0.0323
     41 H          -4.4347    3.7183   -2.6696 H       1  UNL1        0.1549
     42 H          -1.8564    6.2073    1.8432 H       1  UNL1        0.0433
     43 H          -1.6175    5.4590    3.4405 H       1  UNL1        0.0433
     44 H          -0.7133    4.8558    2.0309 H       1  UNL1        0.0433
     45 H          -3.9052    6.2425    3.7088 H       1  UNL1        0.0323
     46 H          -4.8797    5.0310    4.5753 H       1  UNL1        0.0323
     47 H          -3.1073    5.0302    4.7393 H       1  UNL1        0.0323
     48 H           0.5433    0.6364   -0.2367 H       1  UNL1        0.1496
     49 H           1.8211   -1.5435   -2.9080 H       1  UNL1        0.2125
     50 H           4.0194    1.3268    0.5272 H       1  UNL1        0.0584
     51 H           4.8835    0.3353    1.7266 H       1  UNL1        0.0584
     52 H           6.2103    0.7361   -0.2188 H       1  UNL1        0.2095
     53 H           2.4263    1.4985    1.6971 H       1  UNL1        0.2100
     54 H           2.1800   -3.0251    2.5981 H       1  UNL1        0.2100
@<TRIPOS>BOND
     1     1     2    1
     2     1    38    1
     3     1    39    1
     4     1    40    1
     5     2     3    2
     6     2     4   am
     7     4     5    1
     8     4    41    1
     9     5    10   ar
    10     5     6   ar
    11     6     7   ar
    12     6    37    1
    13     7     8   ar
    14     7    18    1
    15     8     9   ar
    16     8    17    1
    17     9    10   ar
    18     9    12    1
    19    10    11    1
    20    12    13    1
    21    12    14   am
    22    13    42    1
    23    13    43    1
    24    13    44    1
    25    14    15    2
    26    14    16    1
    27    16    45    1
    28    16    46    1
    29    16    47    1
    30    18    19    2
    31    18    20   am
    32    20    21    1
    33    20    48    1
    34    21    22    1
    35    21    30    1
    36    21    23    1
    37    23    24    1
    38    23    25    1
    39    23    36    1
    40    25    26    1
    41    25    27    1
    42    25    35    1
    43    27    28    1
    44    27    29    1
    45    27    33    1
    46    29    30    1
    47    30    31    1
    48    30    32    1
    49    32    49    1
    50    33    34    1
    51    33    50    1
    52    33    51    1
    53    34    52    1
    54    35    53    1
    55    36    54    1
