@<TRIPOS>MOLECULE
ZINC03830530
 29 28 0 0 0
SMALL
GASTEIGER

@<TRIPOS>ATOM
      1 C           0.7625   -0.4231    3.7439 C.3     1  UNL1       -0.0385
      2 C          -0.0850   -0.1922    2.4911 C.3     1  UNL1        0.0616
      3 H          -0.4316    0.8411    2.4724 H       1  UNL1        0.0595
      4 C           0.7594   -0.4695    1.2458 C.3     1  UNL1        0.0017
      5 C          -0.0281   -0.0702   -0.0037 C.3     1  UNL1        0.0629
      6 C           0.8673   -0.2084   -1.2367 C.3     1  UNL1       -0.0363
      7 C          -0.4932    1.3813    0.1288 C.3     1  UNL1       -0.0363
      8 O          -1.1655   -0.9240   -0.1429 O.3     1  UNL1       -0.3890
      9 O          -1.2109   -1.0720    2.5089 O.3     1  UNL1       -0.3445
     10 C          -2.3643   -0.5272    3.1530 C.3     1  UNL1        0.2040
     11 H          -2.6211    0.4267    2.6923 H       1  UNL1        0.0952
     12 C          -3.5377   -1.4977    3.0042 C.3     1  UNL1        0.2406
     13 CL         -3.1129   -3.0755    3.7663 Cl      1  UNL1       -0.0780
     14 CL         -4.9929   -0.8102    3.8170 Cl      1  UNL1       -0.0780
     15 CL         -3.8901   -1.7509    1.2542 Cl      1  UNL1       -0.0780
     16 O          -2.0850   -0.3264    4.5400 O.3     1  UNL1       -0.3638
     17 H           0.1609   -0.2255    4.6311 H       1  UNL1        0.0255
     18 H           1.1091   -1.4564    3.7626 H       1  UNL1        0.0255
     19 H           1.6213    0.2480    3.7303 H       1  UNL1        0.0255
     20 H           1.0005   -1.5315    1.1994 H       1  UNL1        0.0318
     21 H           1.6810    0.1104    1.2952 H       1  UNL1        0.0318
     22 H           0.2901    0.0210   -2.1324 H       1  UNL1        0.0257
     23 H           1.7049    0.4844   -1.1568 H       1  UNL1        0.0257
     24 H           1.2446   -1.2291   -1.2991 H       1  UNL1        0.0257
     25 H          -1.1310    1.4798    1.0071 H       1  UNL1        0.0257
     26 H           0.3744    2.0326    0.2350 H       1  UNL1        0.0257
     27 H          -1.0542    1.6658   -0.7614 H       1  UNL1        0.0257
     28 H          -1.7783   -0.8878    0.6042 H       1  UNL1        0.2101
     29 H          -1.8484   -1.1351    5.0146 H       1  UNL1        0.2126
@<TRIPOS>BOND
     1     1     2    1
     2     1    17    1
     3     1    18    1
     4     1    19    1
     5     2     3    1
     6     2     4    1
     7     2     9    1
     8     4     5    1
     9     4    20    1
    10     4    21    1
    11     5     6    1
    12     5     7    1
    13     5     8    1
    14     6    22    1
    15     6    23    1
    16     6    24    1
    17     7    25    1
    18     7    26    1
    19     7    27    1
    20     8    28    1
    21     9    10    1
    22    10    11    1
    23    10    12    1
    24    10    16    1
    25    12    13    1
    26    12    14    1
    27    12    15    1
    28    16    29    1
