@<TRIPOS>MOLECULE
ZINC03831060
 50 53 0 0 0
SMALL
GASTEIGER

@<TRIPOS>ATOM
      1 C          -0.7908   -2.7479    1.3988 C.3     1  UNL1       -0.0567
      2 C           0.6041   -2.1371    1.2432 C.3     1  UNL1       -0.0004
      3 C           1.3049   -2.6100   -0.0279 C.3     1  UNL1       -0.0445
      4 C           0.6410   -2.0445   -1.2802 C.3     1  UNL1       -0.0483
      5 C           0.6470   -0.5213   -1.2683 C.3     1  UNL1       -0.0253
      6 H          -0.0123   -0.2035   -2.0987 H       1  UNL1        0.0315
      7 C           0.0021   -0.0041    0.0020 C.3     1  UNL1       -0.0334
      8 H          -1.0642   -0.3235   -0.0440 H       1  UNL1        0.0307
      9 C           0.5599   -0.5917    1.2672 C.3     1  UNL1       -0.0298
     10 H          -0.0649   -0.2836    2.1104 H       1  UNL1        0.0310
     11 C           2.0182   -0.2106    1.5648 C.3     1  UNL1       -0.0468
     12 C           2.4706   -1.2644    2.6054 C.3     1  UNL1       -0.0235
     13 C           1.5044   -2.4560    2.4635 C.3     1  UNL1        0.0689
     14 C           2.2839   -3.7541    2.2773 C.3     1  UNL1       -0.0356
     15 O           0.6935   -2.5504    3.6438 O.3     1  UNL1       -0.3883
     16 C          -0.0186    1.5209    0.0104 C.3     1  UNL1       -0.0459
     17 C           1.3812    2.1072    0.0002 C.3     1  UNL1       -0.0302
     18 C           2.3623    1.2858   -0.7891 C.2     1  UNL1       -0.0560
     19 C           3.6428    1.7022   -0.7688 C.2     1  UNL1       -0.0149
     20 C           4.6644    0.9046   -1.4813 C.2     1  UNL1        0.1787
     21 O           5.7073    1.4102   -1.8807 O.2     1  UNL1       -0.2879
     22 C           4.3755   -0.5327   -1.6905 C.2     1  UNL1       -0.0180
     23 C           3.0919   -0.9259   -1.7109 C.2     1  UNL1       -0.0702
     24 C           1.9921    0.0747   -1.5680 C.3     1  UNL1        0.0108
     25 C           1.8162    0.6153   -3.0007 C.3     1  UNL1       -0.0521
     26 H          -0.7102   -3.8345    1.4300 H       1  UNL1        0.0236
     27 H          -1.2428   -2.3905    2.3240 H       1  UNL1        0.0236
     28 H          -1.4126   -2.4538    0.5533 H       1  UNL1        0.0236
     29 H           1.2502   -3.7015   -0.0928 H       1  UNL1        0.0272
     30 H           2.3504   -2.3056   -0.0095 H       1  UNL1        0.0272
     31 H          -0.3928   -2.4026   -1.3348 H       1  UNL1        0.0269
     32 H           1.1622   -2.4130   -2.1673 H       1  UNL1        0.0269
     33 H           2.0798    0.7878    1.9963 H       1  UNL1        0.0269
     34 H           2.6362   -0.2903    0.6720 H       1  UNL1        0.0269
     35 H           2.4056   -0.8456    3.6089 H       1  UNL1        0.0293
     36 H           3.4911   -1.5809    2.3938 H       1  UNL1        0.0293
     37 H           2.9216   -3.6719    1.3971 H       1  UNL1        0.0257
     38 H           2.9009   -3.9368    3.1571 H       1  UNL1        0.0257
     39 H           1.5863   -4.5810    2.1447 H       1  UNL1        0.0257
     40 H           1.1918   -2.7485    4.4485 H       1  UNL1        0.2102
     41 H          -0.5763    1.8847   -0.8620 H       1  UNL1        0.0271
     42 H          -0.5515    1.8704    0.9072 H       1  UNL1        0.0271
     43 H           1.3430    3.1096   -0.4493 H       1  UNL1        0.0310
     44 H           1.7480    2.2242    1.0208 H       1  UNL1        0.0310
     45 H           3.9168    2.6127   -0.2306 H       1  UNL1        0.0655
     46 H           5.1819   -1.2546   -1.8266 H       1  UNL1        0.0653
     47 H           2.8699   -1.9858   -1.8416 H       1  UNL1        0.0582
     48 H           1.0162    1.3555   -3.0141 H       1  UNL1        0.0241
     49 H           2.7458    1.0789   -3.3308 H       1  UNL1        0.0241
     50 H           1.5621   -0.2064   -3.6704 H       1  UNL1        0.0241
@<TRIPOS>BOND
     1     1     2    1
     2     1    26    1
     3     1    27    1
     4     1    28    1
     5     2     9    1
     6     2    13    1
     7     2     3    1
     8     3     4    1
     9     3    29    1
    10     3    30    1
    11     4     5    1
    12     4    31    1
    13     4    32    1
    14     5     6    1
    15     5    24    1
    16     5     7    1
    17     7     8    1
    18     7     9    1
    19     7    16    1
    20     9    10    1
    21     9    11    1
    22    11    12    1
    23    11    33    1
    24    11    34    1
    25    12    13    1
    26    12    35    1
    27    12    36    1
    28    13    14    1
    29    13    15    1
    30    14    37    1
    31    14    38    1
    32    14    39    1
    33    15    40    1
    34    16    17    1
    35    16    41    1
    36    16    42    1
    37    17    18    1
    38    17    43    1
    39    17    44    1
    40    18    24    1
    41    18    19    2
    42    19    20    1
    43    19    45    1
    44    20    21    2
    45    20    22    1
    46    22    23    2
    47    22    46    1
    48    23    24    1
    49    23    47    1
    50    24    25    1
    51    25    48    1
    52    25    49    1
    53    25    50    1
