@<TRIPOS>MOLECULE
ZINC00538275
 62 66 0 0 0
SMALL
GASTEIGER

@<TRIPOS>ATOM
      1 C          -2.9903    2.4606    3.4164 C.ar    1  UNL1       -0.0501
      2 C          -3.1814    2.1469    4.7439 C.ar    1  UNL1       -0.0196
      3 C          -2.4703    1.1027    5.3226 C.ar    1  UNL1        0.1169
      4 C          -1.5669    0.3676    4.5647 C.ar    1  UNL1       -0.0196
      5 C          -1.3725    0.6713    3.2353 C.ar    1  UNL1       -0.0501
      6 C          -2.0861    1.7207    2.6487 C.ar    1  UNL1       -0.0104
      7 C          -1.8812    2.0500    1.2263 C.ar    1  UNL1        0.0313
      8 C          -1.8534    1.1877    0.1378 C.ar    1  UNL1        0.0447
      9 C          -1.6312    1.7659   -1.1899 C.ar    1  UNL1        0.0008
     10 C          -1.5630    1.0973   -2.4331 C.ar    1  UNL1       -0.0494
     11 C          -1.3519    1.7943   -3.5935 C.ar    1  UNL1       -0.0195
     12 C          -1.1927    3.1771   -3.5850 C.ar    1  UNL1        0.1180
     13 C          -1.2495    3.8599   -2.3807 C.ar    1  UNL1       -0.0058
     14 C          -1.4622    3.1631   -1.2097 C.ar    1  UNL1        0.0241
     15 S          -1.5989    3.6485    0.4916 S.2     1  UNL1       -0.0874
     16 O          -0.9841    3.8512   -4.7469 O.3     1  UNL1       -0.5067
     17 C          -2.0408   -0.2526    0.3116 C.2     1  UNL1        0.1948
     18 O          -1.0727   -0.9841    0.4188 O.2     1  UNL1       -0.2866
     19 C          -3.4037   -0.8199    0.3569 C.ar    1  UNL1        0.0225
     20 C          -4.5155    0.0264    0.3457 C.ar    1  UNL1       -0.0475
     21 C          -5.7848   -0.5067    0.3818 C.ar    1  UNL1       -0.0193
     22 C          -5.9605   -1.8842    0.4415 C.ar    1  UNL1        0.1208
     23 C          -4.8571   -2.7292    0.4591 C.ar    1  UNL1       -0.0193
     24 C          -3.5847   -2.2042    0.4170 C.ar    1  UNL1       -0.0475
     25 O          -7.2130   -2.4055    0.4832 O.3     1  UNL1       -0.4867
     26 C          -8.3018   -1.4894    0.3512 C.3     1  UNL1        0.1291
     27 C          -9.6237   -2.2399    0.5248 C.3     1  UNL1        0.0031
     28 C         -10.6788   -3.8752    1.9646 C.3     1  UNL1       -0.0318
     29 C         -10.6325   -4.5051    3.3585 C.3     1  UNL1       -0.0123
     30 C         -10.9571   -3.4373    4.4068 C.3     1  UNL1       -0.0434
     31 C          -9.9588   -2.2838    4.2751 C.3     1  UNL1       -0.0123
     32 C         -10.0246   -1.7183    2.8545 C.3     1  UNL1       -0.0318
     33 O          -2.6584    0.8001    6.6329 O.3     1  UNL1       -0.5068
     34 H          -3.5404    3.2750    2.9685 H       1  UNL1        0.0625
     35 H          -3.8823    2.7158    5.3369 H       1  UNL1        0.0654
     36 H          -1.0161   -0.4428    5.0187 H       1  UNL1        0.0654
     37 H          -0.6697    0.0999    2.6472 H       1  UNL1        0.0625
     38 H          -1.6831    0.0246   -2.4693 H       1  UNL1        0.0625
     39 H          -1.3078    1.2612   -4.5317 H       1  UNL1        0.0654
     40 H          -1.1274    4.9327   -2.3590 H       1  UNL1        0.0665
     41 H          -1.7959    4.1472   -5.1811 H       1  UNL1        0.2921
     42 H          -4.3797    1.0970    0.3042 H       1  UNL1        0.0626
     43 H          -6.6447    0.1466    0.3683 H       1  UNL1        0.0654
     44 H          -4.9978   -3.7990    0.5056 H       1  UNL1        0.0654
     45 H          -2.7278   -2.8615    0.4300 H       1  UNL1        0.0626
     46 H          -8.2202   -0.7158    1.1147 H       1  UNL1        0.0751
     47 H          -8.2720   -1.0296   -0.6366 H       1  UNL1        0.0751
     48 H         -10.4550   -1.5561    0.3533 H       1  UNL1        0.0848
     49 H          -9.6733   -3.0592   -0.1925 H       1  UNL1        0.0848
     50 H         -11.6795   -3.4870    1.7746 H       1  UNL1        0.0814
     51 H         -10.4341   -4.6296    1.2168 H       1  UNL1        0.0814
     52 H          -9.6359   -4.9059    3.5438 H       1  UNL1        0.0317
     53 H         -11.3654   -5.3096    3.4195 H       1  UNL1        0.0317
     54 H         -10.8828   -3.8712    5.4040 H       1  UNL1        0.0269
     55 H         -11.9685   -3.0637    4.2466 H       1  UNL1        0.0269
     56 H          -8.9516   -2.6496    4.4748 H       1  UNL1        0.0317
     57 H         -10.2107   -1.5009    4.9904 H       1  UNL1        0.0317
     58 H          -9.3048   -0.9061    2.7532 H       1  UNL1        0.0814
     59 H         -11.0284   -1.3403    2.6605 H       1  UNL1        0.0814
     60 H          -2.1227    1.3292    7.2397 H       1  UNL1        0.2921
     61 N          -9.6785   -2.7887    1.8955 N.4     1  UNL1        0.2376
     62 H          -8.7564   -3.1690    2.1394 H       1  UNL1        0.2034
@<TRIPOS>UNITY_ATOM_ATTR
61 1
charge 1
@<TRIPOS>BOND
     1     1     6   ar
     2     1     2   ar
     3     1    34    1
     4     2     3   ar
     5     2    35    1
     6     3     4   ar
     7     3    33    1
     8     4     5   ar
     9     4    36    1
    10     5     6   ar
    11     5    37    1
    12     6     7    1
    13     7    15   ar
    14     7     8   ar
    15     8     9   ar
    16     8    17    1
    17     9    14   ar
    18     9    10   ar
    19    10    11   ar
    20    10    38    1
    21    11    12   ar
    22    11    39    1
    23    12    13   ar
    24    12    16    1
    25    13    14   ar
    26    13    40    1
    27    14    15   ar
    28    16    41    1
    29    17    18    2
    30    17    19    1
    31    19    24   ar
    32    19    20   ar
    33    20    21   ar
    34    20    42    1
    35    21    22   ar
    36    21    43    1
    37    22    23   ar
    38    22    25    1
    39    23    24   ar
    40    23    44    1
    41    24    45    1
    42    25    26    1
    43    26    27    1
    44    26    46    1
    45    26    47    1
    46    27    48    1
    47    27    49    1
    48    27    61    1
    49    28    29    1
    50    28    50    1
    51    28    51    1
    52    28    61    1
    53    29    30    1
    54    29    52    1
    55    29    53    1
    56    30    31    1
    57    30    54    1
    58    30    55    1
    59    31    32    1
    60    31    56    1
    61    31    57    1
    62    32    58    1
    63    32    59    1
    64    32    61    1
    65    33    60    1
    66    61    62    1
