@<TRIPOS>MOLECULE
ZINC12153177
 80 83 0 0 0
SMALL
GASTEIGER

@<TRIPOS>ATOM
      1 C           1.9590    3.8675   -0.1518 C.3     1  UNL1       -0.0650
      2 C           0.5799    3.6703   -0.7843 C.3     1  UNL1       -0.0528
      3 C           0.3234    2.1764   -0.9929 C.3     1  UNL1       -0.0389
      4 H          -0.6157    2.0404   -1.5293 H       1  UNL1        0.0303
      5 C           0.2401    1.4786    0.3662 C.3     1  UNL1       -0.0497
      6 C          -0.9798    1.9958    1.1312 C.3     1  UNL1       -0.0499
      7 C          -1.0631    1.2980    2.4902 C.3     1  UNL1       -0.0405
      8 H          -0.1240    1.4339    3.0266 H       1  UNL1        0.0301
      9 C          -1.3196   -0.1959    2.2816 C.3     1  UNL1       -0.0621
     10 C          -2.2052    1.9016    3.3029 C.3     1  UNL1       -0.0328
     11 H          -3.1703    1.6294    2.8989 H       1  UNL1        0.0309
     12 C          -2.0483    3.4427    3.4010 C.3     1  UNL1       -0.0492
     13 C          -2.2853    3.8149    4.8943 C.3     1  UNL1       -0.0492
     14 C          -2.9392    2.5435    5.4477 C.3     1  UNL1       -0.0320
     15 H          -3.9668    2.4986    4.9990 H       1  UNL1        0.0309
     16 C          -2.0991    1.4430    4.7743 C.3     1  UNL1       -0.0259
     17 C          -2.6712    0.0837    5.0792 C.3     1  UNL1       -0.0468
     18 C          -2.7766   -0.0933    6.6093 C.3     1  UNL1       -0.0486
     19 C          -3.6569    0.9840    7.2121 C.3     1  UNL1       -0.0285
     20 H          -4.6241    0.9307    6.6751 H       1  UNL1        0.0312
     21 C          -3.0939    2.3910    6.9288 C.3     1  UNL1       -0.0307
     22 H          -3.8472    3.1309    7.2887 H       1  UNL1        0.0309
     23 C          -1.8138    2.5910    7.7289 C.3     1  UNL1       -0.0311
     24 C          -2.1089    2.3620    9.1891 C.2     1  UNL1       -0.0839
     25 C          -3.0512    1.5724    9.5946 C.2     1  UNL1       -0.0648
     26 C          -3.9779    0.8165    8.6791 C.3     1  UNL1       -0.0078
     27 C          -5.4109    1.2963    8.9576 C.3     1  UNL1       -0.0413
     28 C          -5.4409    2.1750   10.2051 C.3     1  UNL1       -0.0258
     29 C          -4.7456    1.4942   11.3814 C.3     1  UNL1        0.0590
     30 H          -5.1696    0.5006   11.5300 H       1  UNL1        0.0596
     31 C          -3.2446    1.3744   11.0890 C.3     1  UNL1       -0.0051
     32 O          -4.9418    2.2704   12.5657 O.3     1  UNL1       -0.3915
     33 C          -3.9214   -0.6640    9.0627 C.3     1  UNL1       -0.0556
     34 C          -0.6145    1.4919    5.1262 C.3     1  UNL1       -0.0590
     35 C           1.4683    1.5712   -1.8076 C.3     1  UNL1       -0.0439
     36 C           1.1811    0.0915   -2.0697 C.3     1  UNL1       -0.0624
     37 C           1.5918    2.3109   -3.1412 C.3     1  UNL1       -0.0624
     38 H           2.1391    4.9313    0.0027 H       1  UNL1        0.0230
     39 H           1.9966    3.3497    0.8066 H       1  UNL1        0.0230
     40 H           2.7238    3.4619   -0.8141 H       1  UNL1        0.0230
     41 H           0.5444    4.1827   -1.7456 H       1  UNL1        0.0265
     42 H          -0.1844    4.0815   -0.1248 H       1  UNL1        0.0265
     43 H           0.1463    0.4029    0.2172 H       1  UNL1        0.0268
     44 H           1.1437    1.6887    0.9385 H       1  UNL1        0.0268
     45 H          -0.8860    3.0715    1.2802 H       1  UNL1        0.0268
     46 H          -1.8834    1.7857    0.5589 H       1  UNL1        0.0268
     47 H          -0.5826   -0.5974    1.5861 H       1  UNL1        0.0233
     48 H          -1.2389   -0.7152    3.2365 H       1  UNL1        0.0233
     49 H          -2.3201   -0.3392    1.8735 H       1  UNL1        0.0233
     50 H          -1.0459    3.7379    3.0967 H       1  UNL1        0.0268
     51 H          -2.7914    3.9312    2.7725 H       1  UNL1        0.0268
     52 H          -1.3534    4.0474    5.3967 H       1  UNL1        0.0268
     53 H          -2.9777    4.6579    4.9635 H       1  UNL1        0.0268
     54 H          -2.0257   -0.6986    4.6721 H       1  UNL1        0.0271
     55 H          -3.6668   -0.0103    4.6378 H       1  UNL1        0.0271
     56 H          -1.7869   -0.0658    7.0518 H       1  UNL1        0.0268
     57 H          -3.2126   -1.0845    6.7652 H       1  UNL1        0.0268
     58 H          -1.0462    1.8725    7.4596 H       1  UNL1        0.0310
     59 H          -1.4436    3.6071    7.5995 H       1  UNL1        0.0310
     60 H          -1.5081    2.8759    9.9186 H       1  UNL1        0.0572
     61 H          -5.7612    1.8718    8.1014 H       1  UNL1        0.0274
     62 H          -6.0527    0.4292    9.1036 H       1  UNL1        0.0274
     63 H          -4.9441    3.1223    9.9945 H       1  UNL1        0.0290
     64 H          -6.4796    2.3749   10.4756 H       1  UNL1        0.0290
     65 H          -2.8740    0.3986   11.3977 H       1  UNL1        0.0335
     66 H          -2.7033    2.1529   11.6332 H       1  UNL1        0.0335
     67 H          -4.5261    1.8962   13.3545 H       1  UNL1        0.2098
     68 H          -4.2375   -0.7831   10.0990 H       1  UNL1        0.0238
     69 H          -4.5856   -1.2334    8.4125 H       1  UNL1        0.0238
     70 H          -2.9009   -1.0299    8.9497 H       1  UNL1        0.0238
     71 H          -0.2303    2.4952    4.9421 H       1  UNL1        0.0235
     72 H          -0.4820    1.2395    6.1782 H       1  UNL1        0.0235
     73 H          -0.0712    0.7759    4.5095 H       1  UNL1        0.0235
     74 H           2.4006    1.6674   -1.2511 H       1  UNL1        0.0298
     75 H           0.2488   -0.0047   -2.6262 H       1  UNL1        0.0232
     76 H           1.9968   -0.3397   -2.6502 H       1  UNL1        0.0232
     77 H           1.0932   -0.4355   -1.1196 H       1  UNL1        0.0232
     78 H           1.8401    3.3558   -2.9555 H       1  UNL1        0.0232
     79 H           2.3781    1.8514   -3.7401 H       1  UNL1        0.0232
     80 H           0.6450    2.2523   -3.6782 H       1  UNL1        0.0232
@<TRIPOS>BOND
     1     1     2    1
     2     1    38    1
     3     1    39    1
     4     1    40    1
     5     2     3    1
     6     2    41    1
     7     2    42    1
     8     3     4    1
     9     3     5    1
    10     3    35    1
    11     5     6    1
    12     5    43    1
    13     5    44    1
    14     6     7    1
    15     6    45    1
    16     6    46    1
    17     7     8    1
    18     7     9    1
    19     7    10    1
    20     9    47    1
    21     9    48    1
    22     9    49    1
    23    10    11    1
    24    10    16    1
    25    10    12    1
    26    12    13    1
    27    12    50    1
    28    12    51    1
    29    13    14    1
    30    13    52    1
    31    13    53    1
    32    14    15    1
    33    14    21    1
    34    14    16    1
    35    16    17    1
    36    16    34    1
    37    17    18    1
    38    17    54    1
    39    17    55    1
    40    18    19    1
    41    18    56    1
    42    18    57    1
    43    19    20    1
    44    19    26    1
    45    19    21    1
    46    21    22    1
    47    21    23    1
    48    23    24    1
    49    23    58    1
    50    23    59    1
    51    24    25    2
    52    24    60    1
    53    25    31    1
    54    25    26    1
    55    26    27    1
    56    26    33    1
    57    27    28    1
    58    27    61    1
    59    27    62    1
    60    28    29    1
    61    28    63    1
    62    28    64    1
    63    29    30    1
    64    29    31    1
    65    29    32    1
    66    31    65    1
    67    31    66    1
    68    32    67    1
    69    33    68    1
    70    33    69    1
    71    33    70    1
    72    34    71    1
    73    34    72    1
    74    34    73    1
    75    35    36    1
    76    35    37    1
    77    35    74    1
    78    36    75    1
    79    36    76    1
    80    36    77    1
    81    37    78    1
    82    37    79    1
    83    37    80    1
