@<TRIPOS>MOLECULE
ZINC00000504
 41 44 0 0 0
SMALL
GASTEIGER

@<TRIPOS>ATOM
      1 C           3.2347    7.3237    0.5993 C.3     1  UNL1       -0.0430
      2 C           1.0045    7.5984    1.5107 C.3     1  UNL1       -0.0160
      3 C          -0.4573    7.5185    1.0804 C.3     1  UNL1        0.0531
      4 N          -0.8687    6.1525    0.7314 N.pl3   1  UNL1       -0.3126
      5 C          -2.2359    6.1574    0.4946 C.ar    1  UNL1        0.0340
      6 C          -2.8382    7.4262    0.5657 C.ar    1  UNL1       -0.0404
      7 C          -4.1935    7.6079    0.4181 C.ar    1  UNL1       -0.0600
      8 C          -4.9977    6.5113    0.1759 C.ar    1  UNL1       -0.0614
      9 C          -4.4177    5.2742    0.0790 C.ar    1  UNL1       -0.0565
     10 C          -3.0323    5.0752    0.2264 C.ar    1  UNL1       -0.0220
     11 C          -2.6488    3.6641    0.0672 C.3     1  UNL1       -0.0003
     12 C          -1.2657    3.1614    0.0335 C.ar    1  UNL1       -0.0379
     13 C          -1.2024    1.7542    0.0287 C.ar    1  UNL1       -0.0579
     14 C          -0.0126    1.0755    0.0080 C.ar    1  UNL1       -0.0615
     15 C           1.1657    1.7957    0.0006 C.ar    1  UNL1       -0.0614
     16 C           1.1077    3.1711    0.0054 C.ar    1  UNL1       -0.0563
     17 C          -0.1045    3.8707    0.0146 C.ar    1  UNL1       -0.0186
     18 C           0.0382    5.3661   -0.0086 C.3     1  UNL1        0.0891
     19 H          -0.1277    5.6436   -1.0575 H       1  UNL1        0.0603
     20 C           1.5221    5.6541    0.2479 C.3     1  UNL1       -0.0089
     21 H           3.5377    6.8778    1.5467 H       1  UNL1        0.0778
     22 H           3.8054    6.8737   -0.2130 H       1  UNL1        0.0778
     23 H           3.4243    8.3967    0.6257 H       1  UNL1        0.0778
     24 H           1.2752    8.6337    1.7128 H       1  UNL1        0.0830
     25 H           1.1680    6.9856    2.3932 H       1  UNL1        0.0830
     26 H          -0.5907    8.1764    0.2159 H       1  UNL1        0.0517
     27 H          -1.0678    7.8893    1.9098 H       1  UNL1        0.0517
     28 H          -2.2633    8.3253    0.7164 H       1  UNL1        0.0636
     29 H          -4.6196    8.5973    0.4965 H       1  UNL1        0.0618
     30 H          -6.0651    6.6248    0.0652 H       1  UNL1        0.0618
     31 H          -5.0473    4.4175   -0.1157 H       1  UNL1        0.0621
     32 H          -3.1195    3.3231   -0.8568 H       1  UNL1        0.0362
     33 H          -3.1550    3.1167    0.8627 H       1  UNL1        0.0362
     34 H          -2.1246    1.1917    0.0368 H       1  UNL1        0.0620
     35 H           0.0021   -0.0041    0.0020 H       1  UNL1        0.0618
     36 H           2.1206    1.2918   -0.0120 H       1  UNL1        0.0618
     37 H           2.0547    3.6857    0.0108 H       1  UNL1        0.0621
     38 H           2.1121    5.2785   -0.5944 H       1  UNL1        0.0836
     39 H           1.8384    5.1490    1.1625 H       1  UNL1        0.0836
     40 N           1.7853    7.0855    0.3771 N.4     1  UNL1        0.2357
     41 H           1.4946    7.5654   -0.4828 H       1  UNL1        0.2032
@<TRIPOS>UNITY_ATOM_ATTR
40 1
charge 1
@<TRIPOS>BOND
     1     1    21    1
     2     1    22    1
     3     1    23    1
     4     1    40    1
     5     2     3    1
     6     2    24    1
     7     2    25    1
     8     2    40    1
     9     3     4    1
    10     3    26    1
    11     3    27    1
    12     4    18    1
    13     4     5    1
    14     5    10   ar
    15     5     6   ar
    16     6     7   ar
    17     6    28    1
    18     7     8   ar
    19     7    29    1
    20     8     9   ar
    21     8    30    1
    22     9    10   ar
    23     9    31    1
    24    10    11    1
    25    11    12    1
    26    11    32    1
    27    11    33    1
    28    12    17   ar
    29    12    13   ar
    30    13    14   ar
    31    13    34    1
    32    14    15   ar
    33    14    35    1
    34    15    16   ar
    35    15    36    1
    36    16    17   ar
    37    16    37    1
    38    17    18    1
    39    18    19    1
    40    18    20    1
    41    20    38    1
    42    20    39    1
    43    20    40    1
    44    40    41    1
