@<TRIPOS>MOLECULE
ZINC01482113
 18 17 0 0 0
SMALL
GASTEIGER

@<TRIPOS>ATOM
      1 CB          0.9909    3.6212   -1.4086 C.3     1  GLU1        0.0007
      2 CG          0.9262    5.1496   -1.3798 C.3     1  GLU1       -0.0077
      3 CD          0.6858    5.6686   -2.7740 C.2     1  GLU1        0.0420
      4 OE1         0.5774    4.8954   -3.6961 O.co2   1  GLU1       -0.5498
      5 CA          1.2350    3.0943    0.0069 C.3     1  GLU1        0.0163
      6 HA          0.4688    3.4843    0.6769 H       1  GLU1        0.0915
      7 C           1.1765    1.5884   -0.0006 C.2     1  GLU1        0.0894
      8 O           2.1986    0.9442   -0.0139 O.co2   1  GLU1       -0.5442
      9 HB1         1.8055    3.3043   -2.0598 H       1  GLU1        0.0327
     10 HB2         0.0485    3.2247   -1.7864 H       1  GLU1        0.0327
     11 HG1         0.1116    5.4665   -0.7286 H       1  GLU1        0.0327
     12 HG2         1.8686    5.5461   -1.0019 H       1  GLU1        0.0327
     13 H1          3.2870    3.1816   -0.1348 H       1  GLU1        0.2001
     14 H2          2.6024    4.5358    0.5458 H       1  GLU1        0.2001
     15 OE2         0.5922    6.9898   -2.9914 O.co2   1  GLU1       -0.5498
     16 OXT        -0.0110    0.9628    0.0073 O.co2   1  GLU1       -0.5442
     17 N           2.5594    3.5194    0.4930 N.4     1  GLU1        0.2249
     18 H3          2.7168    3.1284    1.4293 H       1  GLU1        0.2001
@<TRIPOS>UNITY_ATOM_ATTR
15 1
charge -1
16 1
charge -1
17 1
charge 1
@<TRIPOS>BOND
     1     1     2    1
     2     1     5    1
     3     1     9    1
     4     1    10    1
     5     2     3    1
     6     2    11    1
     7     2    12    1
     8     3     4   ar
     9     3    15   ar
    10     5     6    1
    11     5     7    1
    12     5    17    1
    13     7     8   ar
    14     7    16   ar
    15    13    17    1
    16    14    17    1
    17    17    18    1
