@<TRIPOS>MOLECULE
ZINC00000507
 37 37 0 0 0
SMALL
GASTEIGER

@<TRIPOS>ATOM
      1 C          -0.0127    1.0858    0.0080 C.3     1  UNL1        0.0788
      2 O          -0.6816    1.5467    1.1837 O.3     1  UNL1       -0.4951
      3 C          -0.1485    1.1819    2.3803 C.ar    1  UNL1        0.1207
      4 C           0.9945    0.3968    2.4200 C.ar    1  UNL1       -0.0165
      5 C           1.5359    0.0263    3.6353 C.ar    1  UNL1       -0.0161
      6 C           0.9367    0.4392    4.8163 C.ar    1  UNL1        0.1260
      7 C          -0.2056    1.2244    4.7767 C.ar    1  UNL1        0.0274
      8 C          -0.7442    1.5994    3.5610 C.ar    1  UNL1       -0.0108
      9 C          -0.8565    1.6731    6.0597 C.3     1  UNL1        0.0991
     10 H          -0.7565    0.8898    6.8111 H       1  UNL1        0.0660
     11 C          -0.1745    2.9485    6.5587 C.3     1  UNL1        0.0421
     12 N          -0.7258    3.3181    7.8648 N.am    1  UNL1       -0.3081
     13 C          -0.2723    4.4160    8.5014 C.2     1  UNL1        0.2582
     14 O           0.5922    5.0980    7.9932 O.2     1  UNL1       -0.2699
     15 C          -0.8394    4.7961    9.8449 C.3     1  UNL1        0.0425
     16 O          -2.2418    1.9341    5.8252 O.3     1  UNL1       -0.3855
     17 O           1.4698    0.0744    6.0130 O.3     1  UNL1       -0.4947
     18 C           2.6473   -0.7345    5.9790 C.3     1  UNL1        0.0788
     19 H           0.0021   -0.0041    0.0020 H       1  UNL1        0.0660
     20 H           1.0099    1.4631    0.0003 H       1  UNL1        0.0660
     21 H          -0.5399    1.4469   -0.8751 H       1  UNL1        0.0660
     22 H           1.4612    0.0756    1.5005 H       1  UNL1        0.0655
     23 H           2.4260   -0.5846    3.6662 H       1  UNL1        0.0655
     24 H          -1.6315    2.2143    3.5301 H       1  UNL1        0.0659
     25 H           0.8973    2.7744    6.6529 H       1  UNL1        0.0491
     26 H          -0.3504    3.7563    5.8484 H       1  UNL1        0.0491
     27 H          -1.4173    2.7726    8.2713 H       1  UNL1        0.1490
     28 H          -1.9113    4.9703    9.7507 H       1  UNL1        0.0911
     29 H          -0.6636    3.9883   10.5553 H       1  UNL1        0.0911
     30 H          -0.5479    6.2966   11.2241 H       1  UNL1        0.1999
     31 H           0.8172    5.9054   10.3584 H       1  UNL1        0.1999
     32 H          -2.4062    2.6222    5.1660 H       1  UNL1        0.2103
     33 H           3.4403   -0.2000    5.4559 H       1  UNL1        0.0660
     34 H           2.9674   -0.9532    6.9978 H       1  UNL1        0.0660
     35 H           2.4325   -1.6672    5.4575 H       1  UNL1        0.0660
     36 N          -0.1916    6.0368   10.3058 N.4     1  UNL1        0.2251
     37 H          -0.3968    6.7918    9.6409 H       1  UNL1        0.1999
@<TRIPOS>UNITY_ATOM_ATTR
36 1
charge 1
@<TRIPOS>BOND
     1     1     2    1
     2     1    19    1
     3     1    20    1
     4     1    21    1
     5     2     3    1
     6     3     8   ar
     7     3     4   ar
     8     4     5   ar
     9     4    22    1
    10     5     6   ar
    11     5    23    1
    12     6     7   ar
    13     6    17    1
    14     7     8   ar
    15     7     9    1
    16     8    24    1
    17     9    10    1
    18     9    11    1
    19     9    16    1
    20    11    12    1
    21    11    25    1
    22    11    26    1
    23    12    13   am
    24    12    27    1
    25    13    14    2
    26    13    15    1
    27    15    28    1
    28    15    29    1
    29    15    36    1
    30    16    32    1
    31    17    18    1
    32    18    33    1
    33    18    34    1
    34    18    35    1
    35    30    36    1
    36    31    36    1
    37    36    37    1
