@<TRIPOS>MOLECULE
ZINC11592737
 54 57 0 0 0
SMALL
GASTEIGER

@<TRIPOS>ATOM
      1 C           4.7140    4.8076    2.5652 C.3     1  UNL1       -0.0562
      2 C           4.8456    5.1762    1.0780 C.3     1  UNL1        0.0091
      3 C           3.6886    6.0582    0.6768 C.3     1  UNL1       -0.0178
      4 C           2.7487    5.2661   -0.2598 C.3     1  UNL1        0.0600
      5 H           3.2647    5.1047   -1.2055 H       1  UNL1        0.0596
      6 C           2.3882    3.9360    0.3912 C.3     1  UNL1        0.0007
      7 H           2.1057    4.2019    1.4267 H       1  UNL1        0.0340
      8 C           3.6255    3.0622    0.5486 C.3     1  UNL1       -0.0311
      9 H           3.6834    2.7074    1.5775 H       1  UNL1        0.0308
     10 C           4.8426    3.9014    0.2010 C.3     1  UNL1       -0.0292
     11 H           4.8210    4.1597   -0.8643 H       1  UNL1        0.0310
     12 C           6.1874    3.2470    0.5470 C.3     1  UNL1       -0.0463
     13 C           7.1410    4.4410    0.8026 C.3     1  UNL1       -0.0162
     14 C           6.2596    5.7169    0.8513 C.3     1  UNL1        0.1315
     15 C           6.3833    6.4671   -0.4452 C.2     1  UNL1        0.1902
     16 O           5.6288    6.2260   -1.3567 O.2     1  UNL1       -0.2919
     17 C           7.4490    7.5202   -0.6077 C.3     1  UNL1        0.1052
     18 O           7.3639    8.0860   -1.9171 O.3     1  UNL1       -0.3874
     19 O           6.6542    6.5408    1.9485 O.3     1  UNL1       -0.3804
     20 C           3.5744    1.8374   -0.3695 C.3     1  UNL1       -0.0458
     21 C           2.4091    0.9666    0.1100 C.3     1  UNL1       -0.0302
     22 C           1.1363    1.7750    0.0007 C.2     1  UNL1       -0.0559
     23 C          -0.0127    1.0871    0.0080 C.2     1  UNL1       -0.0149
     24 C          -1.2931    1.8230    0.0959 C.2     1  UNL1        0.1787
     25 O          -2.3611    1.2632   -0.1335 O.2     1  UNL1       -0.2879
     26 C          -1.2386    3.2511    0.4685 C.2     1  UNL1       -0.0180
     27 C          -0.0843    3.9125    0.3733 C.2     1  UNL1       -0.0701
     28 C           1.1656    3.2595   -0.1528 C.3     1  UNL1        0.0131
     29 C           1.1445    3.4991   -1.6635 C.3     1  UNL1       -0.0520
     30 O           1.5849    6.0657   -0.4820 O.3     1  UNL1       -0.3914
     31 H           3.7827    4.2638    2.7237 H       1  UNL1        0.0236
     32 H           5.5555    4.1807    2.8601 H       1  UNL1        0.0236
     33 H           4.7104    5.7171    3.1660 H       1  UNL1        0.0236
     34 H           3.9987    6.9754    0.1960 H       1  UNL1        0.0297
     35 H           3.1148    6.3212    1.5792 H       1  UNL1        0.0297
     36 H           6.1025    2.6161    1.4295 H       1  UNL1        0.0269
     37 H           6.5472    2.6514   -0.2996 H       1  UNL1        0.0269
     38 H           7.6528    4.3106    1.7564 H       1  UNL1        0.0297
     39 H           7.8677    4.5224   -0.0035 H       1  UNL1        0.0297
     40 H           7.3148    8.2384    0.0751 H       1  UNL1        0.0637
     41 H           8.4311    7.0675   -0.4706 H       1  UNL1        0.0637
     42 H           8.0217    8.7728   -2.0923 H       1  UNL1        0.2100
     43 H           7.5426    6.9127    1.8615 H       1  UNL1        0.2108
     44 H           4.5103    1.2799   -0.2695 H       1  UNL1        0.0271
     45 H           3.4414    2.1365   -1.4025 H       1  UNL1        0.0271
     46 H           2.5667    0.6920    1.1544 H       1  UNL1        0.0310
     47 H           2.3296    0.0743   -0.5052 H       1  UNL1        0.0310
     48 H           0.0021   -0.0041    0.0020 H       1  UNL1        0.0655
     49 H          -2.1360    3.7636    0.8259 H       1  UNL1        0.0653
     50 H          -0.0473    4.9559    0.6899 H       1  UNL1        0.0582
     51 H           0.2375    3.0678   -2.0871 H       1  UNL1        0.0241
     52 H           1.1642    4.5707   -1.8617 H       1  UNL1        0.0241
     53 H           2.0168    3.0294   -2.1181 H       1  UNL1        0.0241
     54 H           1.7681    6.9208   -0.8945 H       1  UNL1        0.2098
@<TRIPOS>BOND
     1     1     2    1
     2     1    31    1
     3     1    32    1
     4     1    33    1
     5     2    10    1
     6     2    14    1
     7     2     3    1
     8     3     4    1
     9     3    34    1
    10     3    35    1
    11     4     5    1
    12     4     6    1
    13     4    30    1
    14     6     7    1
    15     6    28    1
    16     6     8    1
    17     8     9    1
    18     8    10    1
    19     8    20    1
    20    10    11    1
    21    10    12    1
    22    12    13    1
    23    12    36    1
    24    12    37    1
    25    13    14    1
    26    13    38    1
    27    13    39    1
    28    14    15    1
    29    14    19    1
    30    15    16    2
    31    15    17    1
    32    17    18    1
    33    17    40    1
    34    17    41    1
    35    18    42    1
    36    19    43    1
    37    20    21    1
    38    20    44    1
    39    20    45    1
    40    21    22    1
    41    21    46    1
    42    21    47    1
    43    22    28    1
    44    22    23    2
    45    23    24    1
    46    23    48    1
    47    24    25    2
    48    24    26    1
    49    26    27    2
    50    26    49    1
    51    27    28    1
    52    27    50    1
    53    28    29    1
    54    29    51    1
    55    29    52    1
    56    29    53    1
    57    30    54    1
