@<TRIPOS>MOLECULE
ZINC01530775
 51 52 0 0 0
SMALL
GASTEIGER

@<TRIPOS>ATOM
      1 C          -5.7265    1.8448    0.0659 C.ar    1  UNL1       -0.0436
      2 C          -5.7452    3.2226    0.0737 C.ar    1  UNL1       -0.0191
      3 C          -4.5526    3.9351    0.0662 C.ar    1  UNL1        0.1205
      4 C          -3.3375    3.2619    0.0507 C.ar    1  UNL1       -0.0191
      5 C          -3.3114    1.8842    0.0429 C.ar    1  UNL1       -0.0436
      6 C          -4.5077    1.1652    0.0504 C.ar    1  UNL1        0.0610
      7 C          -4.4836   -0.3139    0.0425 C.2     1  UNL1        0.2662
      8 N          -3.2791   -0.9834    0.0273 N.pl3   1  UNL1       -0.2497
      9 O          -4.5747    5.2926    0.0740 O.3     1  UNL1       -0.4920
     10 C          -3.3122    5.9621    0.0656 C.3     1  UNL1        0.0896
     11 C          -3.5372    7.4754    0.0762 C.3     1  UNL1       -0.0185
     12 C          -2.1855    8.1920    0.0672 C.3     1  UNL1       -0.0469
     13 C          -2.4106    9.7053    0.0777 C.3     1  UNL1       -0.0185
     14 C          -1.0589   10.4221    0.0688 C.3     1  UNL1        0.0896
     15 O          -1.2690   11.8355    0.0786 O.3     1  UNL1       -0.4920
     16 C          -0.1632   12.6232    0.0724 C.ar    1  UNL1        0.1205
     17 C           1.0998   12.0446    0.0629 C.ar    1  UNL1       -0.0191
     18 C           2.2242   12.8409    0.0516 C.ar    1  UNL1       -0.0436
     19 C           2.0932   14.2304    0.0606 C.ar    1  UNL1        0.0610
     20 C           0.8228   14.8084    0.0755 C.ar    1  UNL1       -0.0436
     21 C          -0.2973   14.0060    0.0813 C.ar    1  UNL1       -0.0191
     22 C           3.2980   15.0886    0.0538 C.2     1  UNL1        0.2662
     23 N           4.5516   14.5164    0.0390 N.pl3   1  UNL1       -0.2497
     24 H          -6.6541    1.2915    0.0721 H       1  UNL1        0.0627
     25 H          -6.6881    3.7492    0.0811 H       1  UNL1        0.0654
     26 H          -2.4123    3.8188    0.0446 H       1  UNL1        0.0654
     27 H          -2.3665    1.3614    0.0313 H       1  UNL1        0.0627
     28 H          -5.6892   -1.9553    0.0458 H       1  UNL1        0.3009
     29 H          -2.4471   -0.4848    0.0216 H       1  UNL1        0.2883
     30 H          -3.2633   -1.9532    0.0220 H       1  UNL1        0.2883
     31 H          -2.7419    5.6733    0.9485 H       1  UNL1        0.0696
     32 H          -2.7591    5.6832   -0.8313 H       1  UNL1        0.0696
     33 H          -4.1075    7.7640   -0.8068 H       1  UNL1        0.0298
     34 H          -4.0904    7.7541    0.9731 H       1  UNL1        0.0298
     35 H          -1.6153    7.9034    0.9501 H       1  UNL1        0.0267
     36 H          -1.6325    7.9133   -0.8297 H       1  UNL1        0.0267
     37 H          -2.9808    9.9941   -0.8052 H       1  UNL1        0.0298
     38 H          -2.9638    9.9842    0.9747 H       1  UNL1        0.0298
     39 H          -0.4887   10.1334    0.9517 H       1  UNL1        0.0696
     40 H          -0.5058   10.1433   -0.8282 H       1  UNL1        0.0696
     41 H           1.2003   10.9693    0.0604 H       1  UNL1        0.0654
     42 H           3.2057   12.3904    0.0401 H       1  UNL1        0.0627
     43 H           0.7179   15.8833    0.0822 H       1  UNL1        0.0627
     44 H          -1.2806   14.4525    0.0925 H       1  UNL1        0.0654
     45 H           3.9041   17.0330    0.0583 H       1  UNL1        0.3009
     46 H           4.6439   13.5508    0.0331 H       1  UNL1        0.2883
     47 H           5.3417   15.0791    0.0346 H       1  UNL1        0.2883
     48 N          -5.6534   -0.9358    0.0508 N.2     1  UNL1       -0.2884
     49 H          -6.5241   -0.3916    0.0623 H       1  UNL1        0.3009
     50 N           3.1046   16.3994    0.0625 N.2     1  UNL1       -0.2884
     51 H           2.1500   16.7773    0.0734 H       1  UNL1        0.3009
@<TRIPOS>UNITY_ATOM_ATTR
48 1
charge 1
50 1
charge 1
@<TRIPOS>BOND
     1     1     6   ar
     2     1     2   ar
     3     1    24    1
     4     2     3   ar
     5     2    25    1
     6     3     4   ar
     7     3     9    1
     8     4     5   ar
     9     4    26    1
    10     5     6   ar
    11     5    27    1
    12     6     7    1
    13     7     8    1
    14     7    48    2
    15     8    29    1
    16     8    30    1
    17     9    10    1
    18    10    11    1
    19    10    31    1
    20    10    32    1
    21    11    12    1
    22    11    33    1
    23    11    34    1
    24    12    13    1
    25    12    35    1
    26    12    36    1
    27    13    14    1
    28    13    37    1
    29    13    38    1
    30    14    15    1
    31    14    39    1
    32    14    40    1
    33    15    16    1
    34    16    21   ar
    35    16    17   ar
    36    17    18   ar
    37    17    41    1
    38    18    19   ar
    39    18    42    1
    40    19    20   ar
    41    19    22    1
    42    20    21   ar
    43    20    43    1
    44    21    44    1
    45    22    23    1
    46    22    50    2
    47    23    46    1
    48    23    47    1
    49    28    48    1
    50    45    50    1
    51    48    49    1
    52    50    51    1
