@<TRIPOS>MOLECULE
ZINC03830728
 28 29 0 0 0
SMALL
GASTEIGER

@<TRIPOS>ATOM
      1 C           1.7830    7.6352    1.0152 C.3     1  UNL1       -0.0361
      2 C           1.5089    6.2846    0.3507 C.3     1  UNL1        0.0869
      3 H           0.4480    6.0417    0.4100 H       1  UNL1        0.0621
      4 C           1.9743    6.3056   -1.1222 C.3     1  UNL1        0.1111
      5 H           1.1309    6.4940   -1.7865 H       1  UNL1        0.0646
      6 C           2.5421    4.8880   -1.3568 C.3     1  UNL1        0.1285
      7 H           3.5993    4.9383   -1.6173 H       1  UNL1        0.0665
      8 C           2.3527    4.1781    0.0021 C.3     1  UNL1        0.1679
      9 H           3.1970    3.5200    0.2073 H       1  UNL1        0.0867
     10 O           2.2979    5.2467    0.9721 O.3     1  UNL1       -0.3482
     11 N           1.1007    3.4174    0.0099 N.ar    1  UNL1       -0.2687
     12 C           0.0423    3.8594    0.7605 C.ar    1  UNL1        0.0525
     13 C          -1.1116    3.1574    0.7671 C.ar    1  UNL1        0.2036
     14 C          -1.2001    1.9700   -0.0019 C.ar    1  UNL1        0.2894
     15 O          -2.2280    1.3169   -0.0077 O.2     1  UNL1       -0.2646
     16 N          -0.1375    1.5727   -0.7306 N.ar    1  UNL1       -0.2725
     17 H          -0.1952    0.7405   -1.2820 H       1  UNL1        0.1735
     18 C           1.0005    2.2912   -0.7192 C.ar    1  UNL1        0.3315
     19 O           1.9521    1.9168   -1.3772 O.2     1  UNL1       -0.2464
     20 F          -2.1650    3.5781    1.5009 F       1  UNL1       -0.1983
     21 O           1.8070    4.2143   -2.3804 O.3     1  UNL1       -0.3847
     22 O           2.9922    7.2905   -1.3116 O.3     1  UNL1       -0.3865
     23 H           1.2427    8.4182    0.4832 H       1  UNL1        0.0255
     24 H           1.4495    7.6041    2.0525 H       1  UNL1        0.0255
     25 H           2.8521    7.8455    0.9834 H       1  UNL1        0.0255
     26 H           0.1306    4.7641    1.3438 H       1  UNL1        0.0842
     27 H           1.8904    4.6181   -3.2551 H       1  UNL1        0.2101
     28 H           2.6903    8.1992   -1.1767 H       1  UNL1        0.2100
@<TRIPOS>BOND
     1     1     2    1
     2     1    23    1
     3     1    24    1
     4     1    25    1
     5     2     3    1
     6     2    10    1
     7     2     4    1
     8     4     5    1
     9     4     6    1
    10     4    22    1
    11     6     7    1
    12     6     8    1
    13     6    21    1
    14     8     9    1
    15     8    10    1
    16     8    11    1
    17    11    18   ar
    18    11    12   ar
    19    12    13   ar
    20    12    26    1
    21    13    14   ar
    22    13    20    1
    23    14    15    2
    24    14    16   ar
    25    16    17    1
    26    16    18   ar
    27    18    19    2
    28    21    27    1
    29    22    28    1
