@<TRIPOS>MOLECULE
ZINC08101156
 110 113 0 0 0
SMALL
GASTEIGER

@<TRIPOS>ATOM
      1 C           2.5066    2.7981   10.7093 C.3     1  UNL1       -0.0384
      2 C           1.0993    3.3553   10.4855 C.3     1  UNL1        0.0642
      3 H           0.4399    3.0080   11.2809 H       1  UNL1        0.0596
      4 C           1.1486    4.8854   10.4949 C.3     1  UNL1        0.0190
      5 C           2.0288    5.3672    9.3375 C.3     1  UNL1        0.0124
      6 H           3.0487    5.0108    9.4822 H       1  UNL1        0.0879
      7 C           1.4734    4.8115    8.0226 C.3     1  UNL1        0.1482
      8 H           2.1245    5.1038    7.1987 H       1  UNL1        0.0702
      9 C           1.4116    3.2843    8.1087 C.3     1  UNL1        0.1908
     10 H           2.4183    2.8864    8.2368 H       1  UNL1        0.0939
     11 O           0.6030    2.9037    9.2238 O.3     1  UNL1       -0.3454
     12 O           0.8421    2.7618    6.9067 O.3     1  UNL1       -0.3447
     13 C           0.8418    1.3375    6.8364 C.3     1  UNL1        0.0694
     14 H           0.7950    0.9429    7.8615 H       1  UNL1        0.0603
     15 C           2.1306    0.8289    6.1857 C.3     1  UNL1       -0.0140
     16 H           2.0057    0.7939    5.1054 H       1  UNL1        0.0324
     17 C           3.2922    1.7488    6.5551 C.3     1  UNL1       -0.0096
     18 C           4.5569    1.3863    5.7771 C.3     1  UNL1        0.1508
     19 C           5.4259    0.2266    6.2400 C.3     1  UNL1        0.0850
     20 O           5.7956    1.5837    6.4942 O.3     1  UNL1       -0.3603
     21 C           4.5909    1.8122    4.3319 C.2     1  UNL1        0.1723
     22 O           5.1484    2.8496    4.0411 O.2     1  UNL1       -0.2939
     23 C           3.9585    0.9872    3.2404 C.3     1  UNL1        0.0440
     24 H           3.1197    0.5655    3.5848 H       1  UNL1        0.0401
     25 C           3.6479    1.9194    2.0640 C.3     1  UNL1        0.0705
     26 H           4.6066    2.2841    1.6621 H       1  UNL1        0.0604
     27 C           2.9002    1.1990    0.9531 C.3     1  UNL1        0.0197
     28 H           3.0108    0.1138    1.0628 H       1  UNL1        0.0359
     29 C           1.4087    1.5215    0.9418 C.3     1  UNL1        0.1052
     30 H           0.9068    0.7747    0.3024 H       1  UNL1        0.0734
     31 O           0.8493    1.4086    2.2704 O.3     1  UNL1       -0.4610
     32 C          -0.4650    1.1891    2.3803 C.2     1  UNL1        0.3127
     33 O          -1.1798    1.3121    1.4057 O.2     1  UNL1       -0.2504
     34 C          -1.1007    0.7868    3.6829 C.3     1  UNL1        0.0801
     35 H          -0.8441   -0.2516    3.9138 H       1  UNL1        0.0436
     36 C          -0.6454    1.6923    4.8287 C.3     1  UNL1        0.0792
     37 H          -1.4607    2.3902    5.0535 H       1  UNL1        0.0608
     38 C          -0.3780    0.8416    6.0709 C.3     1  UNL1        0.0100
     39 H          -0.2323   -0.2006    5.7698 H       1  UNL1        0.0348
     40 C          -1.6060    0.9141    6.9909 C.3     1  UNL1       -0.0577
     41 O           0.5060    2.4340    4.4459 O.3     1  UNL1       -0.3469
     42 C           0.2194    3.7569    3.9880 C.3     1  UNL1        0.1624
     43 H          -0.7120    3.7519    3.4218 H       1  UNL1        0.0910
     44 C           1.3597    4.2448    3.0905 C.3     1  UNL1        0.0272
     45 C           1.0743    5.6846    2.6528 C.3     1  UNL1        0.0911
     46 H           0.1616    5.7106    2.0574 H       1  UNL1        0.0624
     47 C           0.8992    6.5599    3.8976 C.3     1  UNL1        0.1073
     48 H           0.6410    7.5750    3.5958 H       1  UNL1        0.0645
     49 C          -0.2234    5.9826    4.7639 C.3     1  UNL1        0.0871
     50 H          -1.1607    6.0071    4.2080 H       1  UNL1        0.0621
     51 O           0.0905    4.6322    5.1102 O.3     1  UNL1       -0.3456
     52 C          -0.3643    6.8168    6.0388 C.3     1  UNL1       -0.0361
     53 O           2.1179    6.5788    4.6434 O.3     1  UNL1       -0.3867
     54 O           2.1678    6.1729    1.8730 O.3     1  UNL1       -0.3770
     55 C           1.8317    6.4548    0.5130 C.3     1  UNL1        0.0369
     56 C          -2.6245    0.8949    3.5399 C.3     1  UNL1       -0.0499
     57 C           1.1576    2.9005    0.3377 C.3     1  UNL1       -0.0274
     58 C           3.5024    1.5991   -0.4020 C.3     1  UNL1       -0.0567
     59 O           2.9158    3.0451    2.5507 O.3     1  UNL1       -0.3907
     60 C           4.9451   -0.0960    2.7981 C.3     1  UNL1       -0.0532
     61 C           2.4177   -0.5866    6.7017 C.3     1  UNL1       -0.0599
     62 O           0.1607    5.3308    7.8012 O.3     1  UNL1       -0.3813
     63 C           2.5507    7.4031   10.5399 C.3     1  UNL1       -0.0430
     64 C           2.7748    7.3289    8.1301 C.3     1  UNL1       -0.0430
     65 H           2.8854    3.1435   11.6712 H       1  UNL1        0.0255
     66 H           2.4713    1.7087   10.7026 H       1  UNL1        0.0255
     67 H           3.1656    3.1452    9.9135 H       1  UNL1        0.0255
     68 H           1.5682    5.2306   11.4398 H       1  UNL1        0.0346
     69 H           0.1407    5.2830   10.3760 H       1  UNL1        0.0346
     70 H           3.4943    1.6648    7.6253 H       1  UNL1        0.0301
     71 H           3.0279    2.7850    6.3283 H       1  UNL1        0.0301
     72 H           5.1188   -0.3634    7.1060 H       1  UNL1        0.0593
     73 H           6.0100   -0.3194    5.4963 H       1  UNL1        0.0593
     74 H          -1.7633    1.9455    7.3064 H       1  UNL1        0.0234
     75 H          -2.4852    0.5610    6.4519 H       1  UNL1        0.0234
     76 H          -1.4410    0.2873    7.8672 H       1  UNL1        0.0234
     77 H           2.2984    4.2115    3.6437 H       1  UNL1        0.0340
     78 H           1.4310    3.6041    2.2115 H       1  UNL1        0.0340
     79 H          -0.6027    7.8470    5.7744 H       1  UNL1        0.0255
     80 H          -1.1636    6.4057    6.6554 H       1  UNL1        0.0255
     81 H           0.5729    6.7919    6.5947 H       1  UNL1        0.0255
     82 H           2.0791    7.1154    5.4469 H       1  UNL1        0.2100
     83 H           1.1490    7.3037    0.4759 H       1  UNL1        0.0524
     84 H           2.7382    6.6929   -0.0434 H       1  UNL1        0.0524
     85 H           1.3514    5.5827    0.0692 H       1  UNL1        0.0524
     86 H          -2.8967    1.9279    3.3237 H       1  UNL1        0.0238
     87 H          -2.9594    0.2528    2.7253 H       1  UNL1        0.0238
     88 H          -3.0998    0.5807    4.4692 H       1  UNL1        0.0238
     89 H           1.2886    2.8529   -0.7434 H       1  UNL1        0.0265
     90 H           0.1403    3.2178    0.5669 H       1  UNL1        0.0265
     91 H           1.8647    3.6156    0.7582 H       1  UNL1        0.0265
     92 H           4.5564    1.3225   -0.4271 H       1  UNL1        0.0234
     93 H           2.9720    1.0826   -1.2020 H       1  UNL1        0.0234
     94 H           3.4061    2.6762   -0.5385 H       1  UNL1        0.0234
     95 H           3.4532    3.6808    3.0429 H       1  UNL1        0.2098
     96 H           5.8683    0.3714    2.4556 H       1  UNL1        0.0237
     97 H           5.1617   -0.7552    3.6387 H       1  UNL1        0.0237
     98 H           4.5079   -0.6756    1.9851 H       1  UNL1        0.0237
     99 H           2.5321   -0.5621    7.7854 H       1  UNL1        0.0233
    100 H           1.5892   -1.2443    6.4387 H       1  UNL1        0.0233
    101 H           3.3358   -0.9596    6.2478 H       1  UNL1        0.0233
    102 H          -0.2546    5.0162    6.9866 H       1  UNL1        0.2103
    103 H           3.5750    7.0620   10.6897 H       1  UNL1        0.0778
    104 H           2.5353    8.4913   10.4792 H       1  UNL1        0.0778
    105 H           1.9331    7.0771   11.3768 H       1  UNL1        0.0778
    106 H           2.3202    6.9490    7.2152 H       1  UNL1        0.0778
    107 H           2.7547    8.4187    8.1205 H       1  UNL1        0.0778
    108 H           3.8073    6.9851    8.1927 H       1  UNL1        0.0778
    109 N           1.9960    6.8441    9.2890 N.4     1  UNL1        0.2351
    110 H           1.0219    7.1529    9.1889 H       1  UNL1        0.2031
@<TRIPOS>UNITY_ATOM_ATTR
109 1
charge 1
@<TRIPOS>BOND
     1     1     2    1
     2     1    65    1
     3     1    66    1
     4     1    67    1
     5     2     3    1
     6     2    11    1
     7     2     4    1
     8     4     5    1
     9     4    68    1
    10     4    69    1
    11     5     6    1
    12     5     7    1
    13     5   109    1
    14     7     8    1
    15     7     9    1
    16     7    62    1
    17     9    10    1
    18     9    11    1
    19     9    12    1
    20    12    13    1
    21    13    14    1
    22    13    38    1
    23    13    15    1
    24    15    16    1
    25    15    17    1
    26    15    61    1
    27    17    18    1
    28    17    70    1
    29    17    71    1
    30    18    20    1
    31    18    19    1
    32    18    21    1
    33    19    20    1
    34    19    72    1
    35    19    73    1
    36    21    22    2
    37    21    23    1
    38    23    24    1
    39    23    25    1
    40    23    60    1
    41    25    26    1
    42    25    27    1
    43    25    59    1
    44    27    28    1
    45    27    29    1
    46    27    58    1
    47    29    30    1
    48    29    31    1
    49    29    57    1
    50    31    32    1
    51    32    33    2
    52    32    34    1
    53    34    35    1
    54    34    36    1
    55    34    56    1
    56    36    37    1
    57    36    38    1
    58    36    41    1
    59    38    39    1
    60    38    40    1
    61    40    74    1
    62    40    75    1
    63    40    76    1
    64    41    42    1
    65    42    43    1
    66    42    51    1
    67    42    44    1
    68    44    45    1
    69    44    77    1
    70    44    78    1
    71    45    46    1
    72    45    47    1
    73    45    54    1
    74    47    48    1
    75    47    49    1
    76    47    53    1
    77    49    50    1
    78    49    51    1
    79    49    52    1
    80    52    79    1
    81    52    80    1
    82    52    81    1
    83    53    82    1
    84    54    55    1
    85    55    83    1
    86    55    84    1
    87    55    85    1
    88    56    86    1
    89    56    87    1
    90    56    88    1
    91    57    89    1
    92    57    90    1
    93    57    91    1
    94    58    92    1
    95    58    93    1
    96    58    94    1
    97    59    95    1
    98    60    96    1
    99    60    97    1
   100    60    98    1
   101    61    99    1
   102    61   100    1
   103    61   101    1
   104    62   102    1
   105    63   103    1
   106    63   104    1
   107    63   105    1
   108    63   109    1
   109    64   106    1
   110    64   107    1
   111    64   108    1
   112    64   109    1
   113   109   110    1
