@<TRIPOS>MOLECULE
ZINC00968335
 56 57 0 0 0
SMALL
GASTEIGER

@<TRIPOS>ATOM
      1 C          -5.0341    4.9462    3.1000 C.3     1  UNL1       -0.0397
      2 C          -4.4187    3.6866    3.6528 C.ar    1  UNL1       -0.0499
      3 C          -5.0938    2.9507    4.6094 C.ar    1  UNL1       -0.0554
      4 C          -4.5323    1.7954    5.1170 C.ar    1  UNL1       -0.0196
      5 C          -3.2915    1.3711    4.6634 C.ar    1  UNL1        0.1206
      6 C          -2.6140    2.1138    3.7076 C.ar    1  UNL1        0.0019
      7 C          -3.1804    3.2684    3.2024 C.ar    1  UNL1       -0.0516
      8 C          -1.2641    1.6585    3.2161 C.3     1  UNL1        0.0175
      9 H          -1.0336    0.6814    3.6406 H       1  UNL1        0.0400
     10 C          -1.2840    1.5595    1.6895 C.3     1  UNL1       -0.0016
     11 C           0.0439    0.9791    1.1987 C.3     1  UNL1       -0.0306
     12 C           1.3578    0.5572   -0.7908 C.3     1  UNL1       -0.0264
     13 C           2.1944    1.8344   -0.8888 C.3     1  UNL1       -0.0218
     14 C           2.0469   -0.4329    0.1503 C.3     1  UNL1       -0.0218
     15 C          -0.9727   -0.0955   -0.7181 C.3     1  UNL1       -0.0264
     16 C          -1.1377    0.0066   -2.2358 C.3     1  UNL1       -0.0218
     17 C          -0.5062   -1.5052   -0.3495 C.3     1  UNL1       -0.0218
     18 C          -0.2135    2.6516    3.6415 C.ar    1  UNL1       -0.0397
     19 C           0.7376    2.2930    4.5783 C.ar    1  UNL1       -0.0580
     20 C           1.7040    3.2025    4.9653 C.ar    1  UNL1       -0.0615
     21 C           1.7138    4.4737    4.4221 C.ar    1  UNL1       -0.0617
     22 C           0.7595    4.8340    3.4891 C.ar    1  UNL1       -0.0615
     23 C          -0.2043    3.9230    3.0990 C.ar    1  UNL1       -0.0580
     24 O          -2.7390    0.2322    5.1577 O.3     1  UNL1       -0.5065
     25 H          -5.6371    4.7025    2.2253 H       1  UNL1        0.0278
     26 H          -5.6658    5.4059    3.8602 H       1  UNL1        0.0278
     27 H          -4.2446    5.6415    2.8148 H       1  UNL1        0.0278
     28 H          -6.0611    3.2795    4.9597 H       1  UNL1        0.0621
     29 H          -5.0601    1.2208    5.8638 H       1  UNL1        0.0654
     30 H          -2.6552    3.8448    2.4552 H       1  UNL1        0.0624
     31 H          -1.4264    2.5524    1.2628 H       1  UNL1        0.0326
     32 H          -2.1018    0.9096    1.3781 H       1  UNL1        0.0326
     33 H           0.1862   -0.0138    1.6254 H       1  UNL1        0.0815
     34 H           0.8616    1.6290    1.5101 H       1  UNL1        0.0815
     35 H           1.2599    0.1102   -1.7801 H       1  UNL1        0.0846
     36 H           3.1507    1.6071   -1.3600 H       1  UNL1        0.0284
     37 H           1.6611    2.5732   -1.4870 H       1  UNL1        0.0284
     38 H           2.3676    2.2329    0.1109 H       1  UNL1        0.0284
     39 H           1.4002   -1.2964    0.3060 H       1  UNL1        0.0284
     40 H           2.9884   -0.7590   -0.2915 H       1  UNL1        0.0284
     41 H           2.2429    0.0514    1.1070 H       1  UNL1        0.0284
     42 H          -1.9277    0.1093   -0.2343 H       1  UNL1        0.0846
     43 H          -0.2131   -0.3025   -2.7234 H       1  UNL1        0.0284
     44 H          -1.9524   -0.6424   -2.5572 H       1  UNL1        0.0284
     45 H          -1.3651    1.0372   -2.5081 H       1  UNL1        0.0284
     46 H          -0.2649   -1.5419    0.7128 H       1  UNL1        0.0284
     47 H          -1.3007   -2.2192   -0.5665 H       1  UNL1        0.0284
     48 H           0.3794   -1.7589   -0.9322 H       1  UNL1        0.0284
     49 H           0.7277    1.3011    5.0055 H       1  UNL1        0.0620
     50 H           2.4498    2.9209    5.6939 H       1  UNL1        0.0618
     51 H           2.4672    5.1852    4.7264 H       1  UNL1        0.0618
     52 H           0.7671    5.8271    3.0647 H       1  UNL1        0.0618
     53 H          -0.9498    4.2046    2.3701 H       1  UNL1        0.0620
     54 H          -2.1885    0.3698    5.9408 H       1  UNL1        0.2921
     55 N           0.0173    0.9097   -0.2775 N.4     1  UNL1        0.2388
     56 H          -0.2515    1.8280   -0.6498 H       1  UNL1        0.2038
@<TRIPOS>UNITY_ATOM_ATTR
55 1
charge 1
@<TRIPOS>BOND
     1     1     2    1
     2     1    25    1
     3     1    26    1
     4     1    27    1
     5     2     7   ar
     6     2     3   ar
     7     3     4   ar
     8     3    28    1
     9     4     5   ar
    10     4    29    1
    11     5     6   ar
    12     5    24    1
    13     6     7   ar
    14     6     8    1
    15     7    30    1
    16     8     9    1
    17     8    10    1
    18     8    18    1
    19    10    11    1
    20    10    31    1
    21    10    32    1
    22    11    33    1
    23    11    34    1
    24    11    55    1
    25    12    13    1
    26    12    14    1
    27    12    35    1
    28    12    55    1
    29    13    36    1
    30    13    37    1
    31    13    38    1
    32    14    39    1
    33    14    40    1
    34    14    41    1
    35    15    16    1
    36    15    17    1
    37    15    42    1
    38    15    55    1
    39    16    43    1
    40    16    44    1
    41    16    45    1
    42    17    46    1
    43    17    47    1
    44    17    48    1
    45    18    23   ar
    46    18    19   ar
    47    19    20   ar
    48    19    49    1
    49    20    21   ar
    50    20    50    1
    51    21    22   ar
    52    21    51    1
    53    22    23   ar
    54    22    52    1
    55    23    53    1
    56    24    54    1
    57    55    56    1
