@<TRIPOS>MOLECULE
ZINC08101080
 84 86 0 0 0
SMALL
GASTEIGER

@<TRIPOS>ATOM
      1 C           7.6351   -1.8510   -3.7863 C.3     1  UNL1       -0.0357
      2 C           6.3497   -2.4808   -3.2457 C.3     1  UNL1        0.0924
      3 H           6.5699   -3.4489   -2.7957 H       1  UNL1        0.0624
      4 C           5.3302   -2.6538   -4.3882 C.3     1  UNL1        0.1454
      5 C           4.0974   -1.8412   -3.9229 C.3     1  UNL1        0.1456
      6 H           3.1730   -2.3712   -4.1524 H       1  UNL1        0.0679
      7 C           4.3221   -1.7587   -2.3916 C.3     1  UNL1        0.1891
      8 H           3.9844   -2.6735   -1.9042 H       1  UNL1        0.0938
      9 O           5.7530   -1.6137   -2.2649 O.3     1  UNL1       -0.3427
     10 O           3.6506   -0.6219   -1.8450 O.3     1  UNL1       -0.3392
     11 C           3.6851   -0.5571   -0.4178 C.3     1  UNL1        0.1258
     12 H           3.8035   -1.5615   -0.0113 H       1  UNL1        0.0659
     13 C           2.3785    0.0505    0.0967 C.3     1  UNL1        0.1332
     14 H           1.5401   -0.5704   -0.2187 H       1  UNL1        0.0746
     15 C           2.4154    0.1199    1.6247 C.3     1  UNL1        0.1266
     16 H           2.5339   -0.8845    2.0313 H       1  UNL1        0.0665
     17 C           3.5923    0.9914    2.0675 C.3     1  UNL1        0.1328
     18 H           3.6186    1.0408    3.1561 H       1  UNL1        0.0746
     19 C           4.8988    0.3837    1.5529 C.3     1  UNL1        0.1193
     20 H           5.0173   -0.6206    1.9595 H       1  UNL1        0.0656
     21 C           4.8620    0.3144    0.0249 C.3     1  UNL1        0.1138
     22 H           5.7928   -0.1184   -0.3417 H       1  UNL1        0.0647
     23 O           4.7067    1.6312   -0.5081 O.3     1  UNL1       -0.3864
     24 O           5.9981    1.1978    1.9664 O.3     1  UNL1       -0.3856
     25 N           3.4330    2.3413    1.5211 N.pl3   1  UNL1       -0.2708
     26 C           2.6239    3.2506    2.1602 C.cat   1  UNL1        0.3414
     27 N           2.4744    4.5174    1.6475 N.pl3   1  UNL1       -0.2919
     28 O           1.1951    0.6873    2.1053 O.3     1  UNL1       -0.3847
     29 N           2.2193    1.4004   -0.4497 N.pl3   1  UNL1       -0.2708
     30 C           0.9658    1.9548   -0.5576 C.cat   1  UNL1        0.3414
     31 N           0.8160    3.2202   -1.0741 N.pl3   1  UNL1       -0.2919
     32 O           4.0940   -0.5379   -4.5088 O.3     1  UNL1       -0.3350
     33 C           3.1486   -0.3794   -5.5685 C.3     1  UNL1        0.2060
     34 H           3.2650   -1.1932   -6.2842 H       1  UNL1        0.0970
     35 C           3.3902    0.9584   -6.2725 C.3     1  UNL1        0.0582
     36 H           4.3842    0.9603   -6.7199 H       1  UNL1        0.0928
     37 C           2.3358    1.1482   -7.3672 C.3     1  UNL1        0.1305
     38 H           2.4440    0.3648   -8.1174 H       1  UNL1        0.0679
     39 C           0.9417    1.0659   -6.7378 C.3     1  UNL1        0.1147
     40 H           0.1839    1.1452   -7.5173 H       1  UNL1        0.0648
     41 C           0.7947   -0.2760   -6.0159 C.3     1  UNL1        0.1132
     42 H           0.8802   -1.0883   -6.7376 H       1  UNL1        0.0647
     43 O           1.8240   -0.4017   -5.0326 O.3     1  UNL1       -0.3381
     44 C          -0.5733   -0.3411   -5.3337 C.3     1  UNL1        0.0730
     45 O          -0.7653   -1.6421   -4.7745 O.3     1  UNL1       -0.3924
     46 O           0.7770    2.1326   -5.8013 O.3     1  UNL1       -0.3864
     47 O           2.5078    2.4264   -7.9826 O.3     1  UNL1       -0.3834
     48 C           4.5650    2.2594   -4.6021 C.3     1  UNL1       -0.0443
     49 C           5.8868   -2.0821   -5.6938 C.3     1  UNL1        0.0780
     50 O           7.0222   -2.8471   -6.1030 O.3     1  UNL1       -0.3920
     51 O           4.9883   -4.0315   -4.5527 O.3     1  UNL1       -0.3810
     52 H           7.4085   -0.8756   -4.2169 H       1  UNL1        0.0255
     53 H           8.3511   -1.7317   -2.9732 H       1  UNL1        0.0255
     54 H           8.0613   -2.4969   -4.5540 H       1  UNL1        0.0255
     55 H           5.4186    2.2396   -0.2671 H       1  UNL1        0.2100
     56 H           6.8605    0.8718    1.6748 H       1  UNL1        0.2100
     57 H           3.8985    2.5936    0.7084 H       1  UNL1        0.2582
     58 H           1.4052    3.4824    3.7757 H       1  UNL1        0.2545
     59 H           2.9398    4.7697    0.8347 H       1  UNL1        0.2545
     60 H           1.9034    5.1590    2.0984 H       1  UNL1        0.2545
     61 H           1.1485    0.7620    3.0683 H       1  UNL1        0.2101
     62 H           2.9982    1.9031   -0.7353 H       1  UNL1        0.2582
     63 H          -0.0877    0.3522    0.1278 H       1  UNL1        0.2545
     64 H          -0.0582    3.6403   -1.0822 H       1  UNL1        0.2545
     65 H           1.5846    3.6928   -1.4302 H       1  UNL1        0.2545
     66 H          -0.6199    0.4056   -4.5409 H       1  UNL1        0.0584
     67 H          -1.3548   -0.1418   -6.0669 H       1  UNL1        0.0584
     68 H          -1.5792   -1.7330   -4.2604 H       1  UNL1        0.2095
     69 H          -0.0717    2.1216   -5.3379 H       1  UNL1        0.2100
     70 H           1.8679    2.6152   -8.6826 H       1  UNL1        0.2102
     71 H           4.8446    1.3468   -4.0758 H       1  UNL1        0.0777
     72 H           5.3375    2.5107   -5.3290 H       1  UNL1        0.0777
     73 H           4.4609    3.0744   -3.8859 H       1  UNL1        0.0777
     74 H           5.1198   -2.1284   -6.4668 H       1  UNL1        0.0587
     75 H           6.1841   -1.0450   -5.5386 H       1  UNL1        0.0587
     76 H           7.4274   -2.5403   -6.9257 H       1  UNL1        0.2095
     77 H           5.7240   -4.5874   -4.8434 H       1  UNL1        0.2105
     78 N           2.0161    2.8443    3.2655 N.pl3   1  UNL1       -0.2919
     79 H           2.1600    1.8872    3.6083 H       1  UNL1        0.2545
     80 N          -0.1356    1.3250   -0.1754 N.pl3   1  UNL1       -0.2919
     81 H          -1.0372    1.8162   -0.1843 H       1  UNL1        0.2545
     82 N           3.2786    2.0577   -5.2953 N.4     1  UNL1        0.2325
     83 H           2.5548    1.8252   -4.6052 H       1  UNL1        0.2016
     84 H           3.0190    2.9217   -5.7857 H       1  UNL1        0.2016
@<TRIPOS>UNITY_ATOM_ATTR
78 1
charge 1
80 1
charge 1
82 1
charge 1
@<TRIPOS>BOND
     1     1     2    1
     2     1    52    1
     3     1    53    1
     4     1    54    1
     5     2     3    1
     6     2     9    1
     7     2     4    1
     8     4     5    1
     9     4    49    1
    10     4    51    1
    11     5     6    1
    12     5     7    1
    13     5    32    1
    14     7     8    1
    15     7     9    1
    16     7    10    1
    17    10    11    1
    18    11    12    1
    19    11    21    1
    20    11    13    1
    21    13    14    1
    22    13    15    1
    23    13    29    1
    24    15    16    1
    25    15    17    1
    26    15    28    1
    27    17    18    1
    28    17    19    1
    29    17    25    1
    30    19    20    1
    31    19    21    1
    32    19    24    1
    33    21    22    1
    34    21    23    1
    35    23    55    1
    36    24    56    1
    37    25    26    1
    38    25    57    1
    39    26    27    1
    40    26    78    2
    41    27    59    1
    42    27    60    1
    43    28    61    1
    44    29    30    1
    45    29    62    1
    46    30    31    1
    47    30    80    2
    48    31    64    1
    49    31    65    1
    50    32    33    1
    51    33    34    1
    52    33    43    1
    53    33    35    1
    54    35    36    1
    55    35    37    1
    56    35    82    1
    57    37    38    1
    58    37    39    1
    59    37    47    1
    60    39    40    1
    61    39    41    1
    62    39    46    1
    63    41    42    1
    64    41    43    1
    65    41    44    1
    66    44    45    1
    67    44    66    1
    68    44    67    1
    69    45    68    1
    70    46    69    1
    71    47    70    1
    72    48    71    1
    73    48    72    1
    74    48    73    1
    75    48    82    1
    76    49    50    1
    77    49    74    1
    78    49    75    1
    79    50    76    1
    80    51    77    1
    81    58    78    1
    82    63    80    1
    83    78    79    1
    84    80    81    1
    85    82    83    1
    86    82    84    1
