@<TRIPOS>MOLECULE
ZINC00057278
 46 47 0 0 0
SMALL
GASTEIGER

@<TRIPOS>ATOM
      1 C          -0.2586    2.9933   -4.0042 C.3     1  UNL1       -0.0216
      2 C          -0.7492    1.5874   -3.6528 C.3     1  UNL1       -0.0252
      3 H          -1.8247    1.6112   -3.4770 H       1  UNL1        0.0848
      4 C          -0.4427    0.6359   -4.8111 C.3     1  UNL1       -0.0060
      5 C          -1.0429   -0.7397   -4.5136 C.3     1  UNL1       -0.0226
      6 C          -0.7410   -1.6769   -5.6544 C.ar    1  UNL1       -0.0469
      7 C          -1.6241   -1.7824   -6.7131 C.ar    1  UNL1       -0.0551
      8 C          -1.3469   -2.6366   -7.7628 C.ar    1  UNL1       -0.0199
      9 C          -0.1868   -3.3973   -7.7487 C.ar    1  UNL1        0.1169
     10 C           0.6949   -3.2938   -6.6826 C.ar    1  UNL1       -0.0199
     11 C           0.4158   -2.4340   -5.6380 C.ar    1  UNL1       -0.0551
     12 O           0.0856   -4.2422   -8.7778 O.3     1  UNL1       -0.5068
     13 C          -0.7527    1.5927   -1.2315 C.3     1  UNL1       -0.0294
     14 C          -0.0127    1.0858    0.0080 C.3     1  UNL1        0.0128
     15 C          -0.7181    1.5718    1.2479 C.ar    1  UNL1       -0.0387
     16 C          -0.3586    2.7792    1.8174 C.ar    1  UNL1       -0.0547
     17 C          -1.0065    3.2321    2.9516 C.ar    1  UNL1       -0.0163
     18 C          -2.0109    2.4701    3.5265 C.ar    1  UNL1        0.1582
     19 C          -2.3688    1.2521    2.9565 C.ar    1  UNL1        0.1585
     20 C          -1.7193    0.8067    1.8165 C.ar    1  UNL1       -0.0132
     21 O          -3.3542    0.5008    3.5169 O.3     1  UNL1       -0.5033
     22 O          -2.6458    2.9117    4.6451 O.3     1  UNL1       -0.5033
     23 H           0.8169    2.9695   -4.1800 H       1  UNL1        0.0284
     24 H          -0.7661    3.3409   -4.9040 H       1  UNL1        0.0284
     25 H          -0.4769    3.6712   -3.1791 H       1  UNL1        0.0284
     26 H          -0.8764    1.0305   -5.7299 H       1  UNL1        0.0323
     27 H           0.6369    0.5433   -4.9293 H       1  UNL1        0.0323
     28 H          -0.6092   -1.1343   -3.5947 H       1  UNL1        0.0315
     29 H          -2.1225   -0.6472   -4.3953 H       1  UNL1        0.0315
     30 H          -2.5292   -1.1932   -6.7214 H       1  UNL1        0.0621
     31 H          -2.0349   -2.7154   -8.5916 H       1  UNL1        0.0654
     32 H           1.5984   -3.8853   -6.6692 H       1  UNL1        0.0654
     33 H           1.1021   -2.3528   -4.8080 H       1  UNL1        0.0621
     34 H          -0.2655   -5.1351   -8.6571 H       1  UNL1        0.2921
     35 H          -1.7753    1.2154   -1.2238 H       1  UNL1        0.0817
     36 H          -0.7675    2.6825   -1.2255 H       1  UNL1        0.0817
     37 H           0.0021   -0.0041    0.0020 H       1  UNL1        0.0365
     38 H           1.0099    1.4631    0.0003 H       1  UNL1        0.0365
     39 H           0.4270    3.3720    1.3728 H       1  UNL1        0.0621
     40 H          -0.7269    4.1777    3.3919 H       1  UNL1        0.0655
     41 H          -1.9949   -0.1384    1.3724 H       1  UNL1        0.0658
     42 H          -3.0401   -0.1278    4.1811 H       1  UNL1        0.2923
     43 H          -2.2303    2.6283    5.4710 H       1  UNL1        0.2923
     44 N          -0.0563    1.1128   -2.4401 N.4     1  UNL1        0.2292
     45 H           0.9070    1.4682   -2.4395 H       1  UNL1        0.2016
     46 H          -0.0424    0.0862   -2.4378 H       1  UNL1        0.2016
@<TRIPOS>UNITY_ATOM_ATTR
44 1
charge 1
@<TRIPOS>BOND
     1     1     2    1
     2     1    23    1
     3     1    24    1
     4     1    25    1
     5     2     3    1
     6     2     4    1
     7     2    44    1
     8     4     5    1
     9     4    26    1
    10     4    27    1
    11     5     6    1
    12     5    28    1
    13     5    29    1
    14     6    11   ar
    15     6     7   ar
    16     7     8   ar
    17     7    30    1
    18     8     9   ar
    19     8    31    1
    20     9    10   ar
    21     9    12    1
    22    10    11   ar
    23    10    32    1
    24    11    33    1
    25    12    34    1
    26    13    14    1
    27    13    35    1
    28    13    36    1
    29    13    44    1
    30    14    15    1
    31    14    37    1
    32    14    38    1
    33    15    20   ar
    34    15    16   ar
    35    16    17   ar
    36    16    39    1
    37    17    18   ar
    38    17    40    1
    39    18    19   ar
    40    18    22    1
    41    19    20   ar
    42    19    21    1
    43    20    41    1
    44    21    42    1
    45    22    43    1
    46    44    45    1
    47    44    46    1
