@<TRIPOS>MOLECULE
ZINC03830708
 58 58 0 0 0
SMALL
GASTEIGER

@<TRIPOS>ATOM
      1 C          -2.4917   11.6558   -3.1813 C.3     1  UNL1       -0.0653
      2 C          -1.4355   10.6592   -3.6632 C.3     1  UNL1       -0.0559
      3 C          -0.9015    9.8650   -2.4695 C.3     1  UNL1       -0.0532
      4 C           0.1546    8.8684   -2.9515 C.3     1  UNL1       -0.0504
      5 C           0.6887    8.0741   -1.7578 C.3     1  UNL1       -0.0232
      6 C           1.7448    7.0775   -2.2397 C.3     1  UNL1        0.0734
      7 H           1.3215    6.4506   -3.0245 H       1  UNL1        0.0637
      8 C           2.1819    6.2118   -1.0863 C.2     1  UNL1       -0.0595
      9 C           2.0209    4.9130   -1.1443 C.2     1  UNL1       -0.0796
     10 C           2.4580    4.0472    0.0091 C.3     1  UNL1        0.0087
     11 H           2.9060    4.6624    0.7895 H       1  UNL1        0.0372
     12 C           3.4711    2.9905   -0.4775 C.3     1  UNL1        0.0641
     13 H           4.2127    2.7886    0.2953 H       1  UNL1        0.0600
     14 C           2.6087    1.7316   -0.7434 C.3     1  UNL1        0.0001
     15 C           1.5766    1.7745    0.4108 C.3     1  UNL1        0.0613
     16 H           2.0101    1.3756    1.3279 H       1  UNL1        0.0597
     17 C           1.2535    3.2741    0.5739 C.3     1  UNL1       -0.0029
     18 H           1.1169    3.5140    1.6284 H       1  UNL1        0.0335
     19 C          -0.0109    3.6264   -0.2124 C.3     1  UNL1       -0.0290
     20 C          -1.2056    2.9829    0.4430 C.2     1  UNL1       -0.0876
     21 C          -2.2416    3.7121    0.7764 C.2     1  UNL1       -0.0879
     22 C          -2.3164    5.1551    0.3485 C.3     1  UNL1       -0.0344
     23 C          -3.6501    5.4095   -0.3568 C.3     1  UNL1       -0.0445
     24 C          -3.7261    6.8746   -0.7912 C.3     1  UNL1       -0.0129
     25 C          -5.0397    7.1251   -1.4858 C.2     1  UNL1        0.0418
     26 O          -5.8338    6.2243   -1.6197 O.co2   1  UNL1       -0.5498
     27 O           0.3999    1.0450    0.0568 O.3     1  UNL1       -0.3914
     28 O           4.1070    3.4244   -1.6814 O.3     1  UNL1       -0.3911
     29 O           2.8717    7.7895   -2.7547 O.3     1  UNL1       -0.3878
     30 H          -3.3117   11.1157   -2.7080 H       1  UNL1        0.0230
     31 H          -2.0436   12.3401   -2.4607 H       1  UNL1        0.0230
     32 H          -2.8721   12.2217   -4.0317 H       1  UNL1        0.0230
     33 H          -0.6155   11.1993   -4.1364 H       1  UNL1        0.0263
     34 H          -1.8836    9.9750   -4.3837 H       1  UNL1        0.0263
     35 H          -1.7215    9.3249   -1.9963 H       1  UNL1        0.0265
     36 H          -0.4534   10.5492   -1.7490 H       1  UNL1        0.0265
     37 H           0.9747    9.4085   -3.4247 H       1  UNL1        0.0266
     38 H          -0.2934    8.1841   -3.6720 H       1  UNL1        0.0266
     39 H          -0.1314    7.5340   -1.2846 H       1  UNL1        0.0293
     40 H           1.1368    8.7583   -1.0373 H       1  UNL1        0.0293
     41 H           2.6279    6.6620   -0.2118 H       1  UNL1        0.0594
     42 H           1.5749    4.4627   -2.0188 H       1  UNL1        0.0573
     43 H           3.2157    0.8282   -0.6854 H       1  UNL1        0.0315
     44 H           2.1102    1.8020   -1.7101 H       1  UNL1        0.0315
     45 H          -0.1417    4.7084   -0.2241 H       1  UNL1        0.0311
     46 H           0.0835    3.2607   -1.2349 H       1  UNL1        0.0311
     47 H          -1.2078    1.9206    0.6379 H       1  UNL1        0.0569
     48 H          -3.0421    3.2791    1.3579 H       1  UNL1        0.0569
     49 H          -2.2405    5.7984    1.2252 H       1  UNL1        0.0307
     50 H          -1.4963    5.3744   -0.3352 H       1  UNL1        0.0307
     51 H          -3.7261    4.7662   -1.2334 H       1  UNL1        0.0272
     52 H          -4.4703    5.1903    0.3269 H       1  UNL1        0.0272
     53 H          -3.6502    7.5179    0.0855 H       1  UNL1        0.0325
     54 H          -2.9059    7.0938   -1.4748 H       1  UNL1        0.0325
     55 H           0.5453    0.0960   -0.0586 H       1  UNL1        0.2098
     56 H           4.7544    2.7976   -2.0322 H       1  UNL1        0.2098
     57 H           3.2995    8.3687   -2.1092 H       1  UNL1        0.2102
     58 O          -5.3277    8.3490   -1.9558 O.co2   1  UNL1       -0.5498
@<TRIPOS>UNITY_ATOM_ATTR
58 1
charge -1
@<TRIPOS>BOND
     1     1     2    1
     2     1    30    1
     3     1    31    1
     4     1    32    1
     5     2     3    1
     6     2    33    1
     7     2    34    1
     8     3     4    1
     9     3    35    1
    10     3    36    1
    11     4     5    1
    12     4    37    1
    13     4    38    1
    14     5     6    1
    15     5    39    1
    16     5    40    1
    17     6     7    1
    18     6     8    1
    19     6    29    1
    20     8     9    2
    21     8    41    1
    22     9    10    1
    23     9    42    1
    24    10    11    1
    25    10    17    1
    26    10    12    1
    27    12    13    1
    28    12    14    1
    29    12    28    1
    30    14    15    1
    31    14    43    1
    32    14    44    1
    33    15    16    1
    34    15    17    1
    35    15    27    1
    36    17    18    1
    37    17    19    1
    38    19    20    1
    39    19    45    1
    40    19    46    1
    41    20    21    2
    42    20    47    1
    43    21    22    1
    44    21    48    1
    45    22    23    1
    46    22    49    1
    47    22    50    1
    48    23    24    1
    49    23    51    1
    50    23    52    1
    51    24    25    1
    52    24    53    1
    53    24    54    1
    54    25    26   ar
    55    25    58   ar
    56    27    55    1
    57    28    56    1
    58    29    57    1
