@<TRIPOS>MOLECULE
ZINC11616651
 55 58 0 0 0
SMALL
GASTEIGER

@<TRIPOS>ATOM
      1 C           0.0531   -2.6996    3.3577 C.3     1  UNL1       -0.0553
      2 C          -0.5332   -1.3322    3.7148 C.3     1  UNL1       -0.0032
      3 C          -1.8061   -1.5867    4.5187 C.3     1  UNL1       -0.0363
      4 C          -1.4474   -2.3081    5.8203 C.3     1  UNL1        0.0107
      5 C          -0.4407   -1.4805    6.5784 C.2     1  UNL1        0.1564
      6 O          -0.4199   -1.5141    7.7925 O.2     1  UNL1       -0.2927
      7 C           0.4729   -0.6703    5.8841 C.2     1  UNL1       -0.0155
      8 C           0.4677   -0.5926    4.5343 C.2     1  UNL1       -0.0382
      9 C           1.4640    0.2474    3.8529 C.2     1  UNL1       -0.0616
     10 C           1.0085    0.9854    2.8203 C.2     1  UNL1       -0.0801
     11 C          -0.4593    0.8699    2.4963 C.3     1  UNL1       -0.0156
     12 H          -1.0171    1.3456    3.3029 H       1  UNL1        0.0349
     13 C          -0.8838   -0.5881    2.4338 C.3     1  UNL1       -0.0251
     14 H          -0.3714   -1.0665    1.5991 H       1  UNL1        0.0315
     15 C          -2.3938   -0.6491    2.1837 C.3     1  UNL1       -0.0483
     16 C          -2.6834   -0.0189    0.8233 C.3     1  UNL1       -0.0444
     17 C          -2.2669    1.4534    0.8017 C.3     1  UNL1        0.0001
     18 C          -0.7912    1.6111    1.2285 C.3     1  UNL1       -0.0264
     19 H          -0.5687    2.6689    1.3685 H       1  UNL1        0.0313
     20 C          -0.0127    1.0858    0.0080 C.3     1  UNL1       -0.0465
     21 C          -0.8175    1.6262   -1.1965 C.3     1  UNL1       -0.0232
     22 C          -2.2474    1.8887   -0.6879 C.3     1  UNL1        0.0721
     23 C          -3.2514    1.0601   -1.4919 C.3     1  UNL1       -0.0184
     24 C          -3.1037    1.3834   -2.9801 C.3     1  UNL1       -0.0106
     25 C          -4.0926    0.5673   -3.7720 C.2     1  UNL1        0.0418
     26 O          -4.8390   -0.1946   -3.2044 O.co2   1  UNL1       -0.5498
     27 O          -2.5598    3.2788   -0.7972 O.3     1  UNL1       -0.3880
     28 C          -3.2139    2.3194    1.6348 C.3     1  UNL1       -0.0567
     29 H           0.9518   -2.5637    2.7559 H       1  UNL1        0.0238
     30 H           0.3059   -3.2365    4.2720 H       1  UNL1        0.0238
     31 H          -0.6805   -3.2727    2.7908 H       1  UNL1        0.0238
     32 H          -2.4986   -2.1997    3.9418 H       1  UNL1        0.0278
     33 H          -2.2726   -0.6291    4.7500 H       1  UNL1        0.0278
     34 H          -1.0573   -3.2041    5.6082 H       1  UNL1        0.0345
     35 H          -2.3441   -2.4373    6.4265 H       1  UNL1        0.0345
     36 H           1.1969   -0.0952    6.4421 H       1  UNL1        0.0655
     37 H           2.4989    0.2716    4.1609 H       1  UNL1        0.0617
     38 H           1.6641    1.6290    2.2524 H       1  UNL1        0.0575
     39 H          -2.9176   -0.0959    2.9634 H       1  UNL1        0.0269
     40 H          -2.7243   -1.6878    2.1849 H       1  UNL1        0.0269
     41 H          -3.7508   -0.0922    0.6147 H       1  UNL1        0.0272
     42 H          -2.1312   -0.5586    0.0539 H       1  UNL1        0.0272
     43 H           0.0021   -0.0041    0.0020 H       1  UNL1        0.0269
     44 H           1.0026    1.4824    0.0004 H       1  UNL1        0.0269
     45 H          -0.3731    2.5541   -1.5565 H       1  UNL1        0.0293
     46 H          -0.8356    0.8856   -1.9960 H       1  UNL1        0.0293
     47 H          -3.0597   -0.0005   -1.3297 H       1  UNL1        0.0297
     48 H          -4.2637    1.3003   -1.1667 H       1  UNL1        0.0297
     49 H          -3.2954    2.4441   -3.1423 H       1  UNL1        0.0326
     50 H          -2.0914    1.1432   -3.3053 H       1  UNL1        0.0326
     51 H          -2.5384    3.6167   -1.7030 H       1  UNL1        0.2102
     52 H          -4.2306    2.2137    1.2563 H       1  UNL1        0.0236
     53 H          -3.1786    1.9985    2.6759 H       1  UNL1        0.0236
     54 H          -2.9072    3.3631    1.5657 H       1  UNL1        0.0236
     55 O          -4.1443    0.6869   -5.1079 O.co2   1  UNL1       -0.5498
@<TRIPOS>UNITY_ATOM_ATTR
55 1
charge -1
@<TRIPOS>BOND
     1     1     2    1
     2     1    29    1
     3     1    30    1
     4     1    31    1
     5     2     8    1
     6     2    13    1
     7     2     3    1
     8     3     4    1
     9     3    32    1
    10     3    33    1
    11     4     5    1
    12     4    34    1
    13     4    35    1
    14     5     6    2
    15     5     7    1
    16     7     8    2
    17     7    36    1
    18     8     9    1
    19     9    10    2
    20     9    37    1
    21    10    11    1
    22    10    38    1
    23    11    12    1
    24    11    18    1
    25    11    13    1
    26    13    14    1
    27    13    15    1
    28    15    16    1
    29    15    39    1
    30    15    40    1
    31    16    17    1
    32    16    41    1
    33    16    42    1
    34    17    22    1
    35    17    18    1
    36    17    28    1
    37    18    19    1
    38    18    20    1
    39    20    21    1
    40    20    43    1
    41    20    44    1
    42    21    22    1
    43    21    45    1
    44    21    46    1
    45    22    23    1
    46    22    27    1
    47    23    24    1
    48    23    47    1
    49    23    48    1
    50    24    25    1
    51    24    49    1
    52    24    50    1
    53    25    26   ar
    54    25    55   ar
    55    27    51    1
    56    28    52    1
    57    28    53    1
    58    28    54    1
