@<TRIPOS>MOLECULE
ZINC15848271
 45 47 0 0 0
SMALL
GASTEIGER

@<TRIPOS>ATOM
      1 C          -4.8852    0.0140    0.7017 C.ar    1  UNL1       -0.0617
      2 C          -3.9057    0.0238    1.6785 C.ar    1  UNL1       -0.0612
      3 C          -2.6800    0.6043    1.4248 C.ar    1  UNL1       -0.0543
      4 C          -2.4297    1.1826    0.1798 C.ar    1  UNL1       -0.0217
      5 C          -3.4241    1.1749   -0.7990 C.ar    1  UNL1       -0.0543
      6 C          -4.6433    0.5853   -0.5348 C.ar    1  UNL1       -0.0612
      7 C          -1.1188    1.8062   -0.0988 C.2     1  UNL1       -0.0349
      8 C          -0.0229    1.0608   -0.1275 C.2     1  UNL1       -0.0354
      9 C           1.2901    1.6675   -0.5503 C.3     1  UNL1       -0.0124
     10 C           2.3688   -0.0045    0.8528 C.3     1  UNL1       -0.0314
     11 C           3.7620   -0.1343    1.5182 C.3     1  UNL1       -0.0077
     12 C           4.6380    0.8209    0.6754 C.3     1  UNL1       -0.0077
     13 C           3.6480    1.8016    0.0200 C.3     1  UNL1       -0.0314
     14 C          -1.0281    3.2893   -0.3503 C.3     1  UNL1       -0.0020
     15 C          -1.2639    3.5662   -1.8127 C.ar    1  UNL1       -0.0430
     16 C          -0.1973    3.5914   -2.6919 C.ar    1  UNL1       -0.0569
     17 C          -0.4136    3.8397   -4.0342 C.ar    1  UNL1       -0.0431
     18 C          -1.6965    4.0742   -4.4961 C.ar    1  UNL1        0.0410
     19 C          -2.7628    4.0545   -3.6149 C.ar    1  UNL1       -0.0431
     20 C          -2.5459    3.8005   -2.2737 C.ar    1  UNL1       -0.0569
     21 CL         -1.9681    4.3926   -6.1809 Cl      1  UNL1       -0.0835
     22 H          -5.8429   -0.4419    0.9052 H       1  UNL1        0.0618
     23 H          -4.1007   -0.4242    2.6417 H       1  UNL1        0.0618
     24 H          -1.9161    0.6113    2.1882 H       1  UNL1        0.0624
     25 H          -3.2381    1.6249   -1.7630 H       1  UNL1        0.0624
     26 H          -5.4120    0.5741   -1.2933 H       1  UNL1        0.0618
     27 H          -0.0720    0.0176    0.1478 H       1  UNL1        0.0628
     28 H           1.6203    1.2066   -1.4813 H       1  UNL1        0.0861
     29 H           1.1634    2.7396   -0.7007 H       1  UNL1        0.0861
     30 H           1.5799   -0.2660    1.5580 H       1  UNL1        0.0814
     31 H           2.3097   -0.6265   -0.0403 H       1  UNL1        0.0814
     32 H           4.1294   -1.1580    1.4475 H       1  UNL1        0.0319
     33 H           3.7276    0.1906    2.5581 H       1  UNL1        0.0319
     34 H           5.1792    0.2627   -0.0885 H       1  UNL1        0.0319
     35 H           5.3355    1.3596    1.3168 H       1  UNL1        0.0319
     36 H           3.6980    1.7101   -1.0650 H       1  UNL1        0.0814
     37 H           3.8830    2.8226    0.3205 H       1  UNL1        0.0814
     38 H          -1.7827    3.8053    0.2434 H       1  UNL1        0.0362
     39 H          -0.0374    3.6458   -0.0681 H       1  UNL1        0.0362
     40 H           0.8046    3.4127   -2.3304 H       1  UNL1        0.0621
     41 H           0.4192    3.8550   -4.7217 H       1  UNL1        0.0632
     42 H          -3.7645    4.2371   -3.9749 H       1  UNL1        0.0632
     43 H          -3.3783    3.7847   -1.5857 H       1  UNL1        0.0621
     44 N           2.3195    1.4242    0.5046 N.4     1  UNL1        0.2381
     45 H           2.0846    1.9764    1.3378 H       1  UNL1        0.2037
@<TRIPOS>UNITY_ATOM_ATTR
44 1
charge 1
@<TRIPOS>BOND
     1     1     6   ar
     2     1     2   ar
     3     1    22    1
     4     2     3   ar
     5     2    23    1
     6     3     4   ar
     7     3    24    1
     8     4     5   ar
     9     4     7    1
    10     5     6   ar
    11     5    25    1
    12     6    26    1
    13     7     8    2
    14     7    14    1
    15     8     9    1
    16     8    27    1
    17     9    28    1
    18     9    29    1
    19     9    44    1
    20    10    11    1
    21    10    30    1
    22    10    31    1
    23    10    44    1
    24    11    12    1
    25    11    32    1
    26    11    33    1
    27    12    13    1
    28    12    34    1
    29    12    35    1
    30    13    36    1
    31    13    37    1
    32    13    44    1
    33    14    15    1
    34    14    38    1
    35    14    39    1
    36    15    20   ar
    37    15    16   ar
    38    16    17   ar
    39    16    40    1
    40    17    18   ar
    41    17    41    1
    42    18    19   ar
    43    18    21    1
    44    19    20   ar
    45    19    42    1
    46    20    43    1
    47    44    45    1
