@<TRIPOS>MOLECULE
ZINC03830290
 62 65 0 0 0
SMALL
GASTEIGER

@<TRIPOS>ATOM
      1 C          -1.1807    0.5827   -5.5987 C.3     1  UNL1       -0.0594
      2 C          -0.9409    0.1902   -4.1391 C.3     1  UNL1       -0.0071
      3 H           0.1168   -0.0110   -3.9760 H       1  UNL1        0.0330
      4 C          -1.4136    1.3280   -3.2014 C.3     1  UNL1       -0.0436
      5 C          -2.7655    0.8414   -2.6605 C.3     1  UNL1       -0.0263
      6 H          -3.5278    0.9868   -3.4324 H       1  UNL1        0.0311
      7 C          -3.2224    1.5086   -1.3958 C.3     1  UNL1        0.0003
      8 H          -4.2206    1.0742   -1.1587 H       1  UNL1        0.0336
      9 C          -3.4443    3.0114   -1.5387 C.3     1  UNL1       -0.0432
     10 C          -2.1361    3.7231   -1.8473 C.3     1  UNL1       -0.0301
     11 C          -0.9987    3.1997   -1.0208 C.2     1  UNL1       -0.0532
     12 C           0.1655    3.8881   -1.0806 C.2     1  UNL1       -0.0148
     13 C           1.2848    3.3411   -0.2688 C.2     1  UNL1        0.1787
     14 O           2.0703    4.0498    0.3338 O.2     1  UNL1       -0.2879
     15 C           1.3689    1.8553   -0.2556 C.2     1  UNL1       -0.0180
     16 C           0.1886    1.1994   -0.1651 C.2     1  UNL1       -0.0674
     17 C          -1.0745    2.0006   -0.1351 C.3     1  UNL1        0.0443
     18 C          -2.3518    1.2191   -0.1835 C.3     1  UNL1        0.1526
     19 C          -2.1979   -0.2866   -0.0220 C.3     1  UNL1        0.0910
     20 H          -3.1991   -0.7136    0.1668 H       1  UNL1        0.0626
     21 C          -1.6382   -0.9294   -1.2853 C.3     1  UNL1       -0.0151
     22 C          -2.5485   -0.6809   -2.4867 C.3     1  UNL1        0.0096
     23 C          -1.7812   -1.0493   -3.7812 C.3     1  UNL1        0.1351
     24 C          -0.8937   -2.2472   -3.5874 C.2     1  UNL1        0.2024
     25 O           0.2557   -2.0986   -3.2478 O.2     1  UNL1       -0.2907
     26 C          -1.4383   -3.6335   -3.8168 C.3     1  UNL1        0.1530
     27 O          -0.3944   -4.6112   -3.5664 O.3     1  UNL1       -0.4570
     28 C          -0.7187   -5.9038   -3.7273 C.2     1  UNL1        0.3043
     29 O          -1.8378   -6.2081   -4.0663 O.2     1  UNL1       -0.2512
     30 C           0.3130   -6.9753   -3.4853 C.3     1  UNL1        0.0332
     31 O          -2.7168   -1.3122   -4.8357 O.3     1  UNL1       -0.3801
     32 C          -3.8746   -1.4371   -2.3829 C.3     1  UNL1       -0.0562
     33 O          -1.3917   -0.6094    1.1103 O.3     1  UNL1       -0.3886
     34 F          -3.1029    1.6536    0.9384 F       1  UNL1       -0.2377
     35 C          -1.1021    2.6002    1.2834 C.3     1  UNL1       -0.0493
     36 H          -2.2365    0.8113   -5.7446 H       1  UNL1        0.0233
     37 H          -0.5819    1.4604   -5.8420 H       1  UNL1        0.0233
     38 H          -0.8947   -0.2440   -6.2490 H       1  UNL1        0.0233
     39 H          -0.6919    1.4727   -2.4005 H       1  UNL1        0.0272
     40 H          -1.5358    2.2438   -3.7829 H       1  UNL1        0.0272
     41 H          -3.8716    3.4118   -0.6120 H       1  UNL1        0.0272
     42 H          -4.1617    3.2001   -2.3469 H       1  UNL1        0.0272
     43 H          -2.2584    4.7919   -1.6140 H       1  UNL1        0.0310
     44 H          -1.8981    3.6486   -2.9044 H       1  UNL1        0.0310
     45 H           0.2722    4.7815   -1.6838 H       1  UNL1        0.0656
     46 H           2.3129    1.3296   -0.3167 H       1  UNL1        0.0653
     47 H           0.1953    0.1174   -0.1319 H       1  UNL1        0.0583
     48 H          -0.6470   -0.5331   -1.4912 H       1  UNL1        0.0297
     49 H          -1.5631   -2.0063   -1.1014 H       1  UNL1        0.0297
     50 H          -2.2046   -3.7976   -3.1957 H       1  UNL1        0.0779
     51 H          -1.7805   -3.7234   -4.8478 H       1  UNL1        0.0779
     52 H           0.6616   -6.9177   -2.4541 H       1  UNL1        0.0342
     53 H          -0.1312   -7.9544   -3.6645 H       1  UNL1        0.0342
     54 H           1.1547   -6.8287   -4.1621 H       1  UNL1        0.0342
     55 H          -2.3042   -1.5497   -5.6774 H       1  UNL1        0.2108
     56 H          -4.4120   -1.1078   -1.4936 H       1  UNL1        0.0236
     57 H          -4.4782   -1.2351   -3.2678 H       1  UNL1        0.0236
     58 H          -3.6783   -2.5070   -2.3134 H       1  UNL1        0.0236
     59 H          -1.2693   -1.5586    1.2482 H       1  UNL1        0.2099
     60 H          -0.2186    3.2208    1.4327 H       1  UNL1        0.0242
     61 H          -1.9983    3.2090    1.4031 H       1  UNL1        0.0242
     62 H          -1.1090    1.7951    2.0181 H       1  UNL1        0.0242
@<TRIPOS>BOND
     1     1     2    1
     2     1    36    1
     3     1    37    1
     4     1    38    1
     5     2     3    1
     6     2    23    1
     7     2     4    1
     8     4     5    1
     9     4    39    1
    10     4    40    1
    11     5     6    1
    12     5    22    1
    13     5     7    1
    14     7     8    1
    15     7    18    1
    16     7     9    1
    17     9    10    1
    18     9    41    1
    19     9    42    1
    20    10    11    1
    21    10    43    1
    22    10    44    1
    23    11    17    1
    24    11    12    2
    25    12    13    1
    26    12    45    1
    27    13    14    2
    28    13    15    1
    29    15    16    2
    30    15    46    1
    31    16    17    1
    32    16    47    1
    33    17    18    1
    34    17    35    1
    35    18    19    1
    36    18    34    1
    37    19    20    1
    38    19    21    1
    39    19    33    1
    40    21    22    1
    41    21    48    1
    42    21    49    1
    43    22    23    1
    44    22    32    1
    45    23    24    1
    46    23    31    1
    47    24    25    2
    48    24    26    1
    49    26    27    1
    50    26    50    1
    51    26    51    1
    52    27    28    1
    53    28    29    2
    54    28    30    1
    55    30    52    1
    56    30    53    1
    57    30    54    1
    58    31    55    1
    59    32    56    1
    60    32    57    1
    61    32    58    1
    62    33    59    1
    63    35    60    1
    64    35    61    1
    65    35    62    1
