@<TRIPOS>MOLECULE
ZINC11616426
 51 54 0 0 0
SMALL
GASTEIGER

@<TRIPOS>ATOM
      1 C          -0.8719    4.0132    1.1821 C.3     1  UNL1       -0.0618
      2 C          -0.3051    2.7407    1.8014 C.3     1  UNL1       -0.0365
      3 H           0.7321    2.9119    2.1071 H       1  UNL1        0.0304
      4 C          -1.1344    2.4391    3.0618 C.3     1  UNL1       -0.0282
      5 C          -2.5700    2.1513    2.6585 C.2     1  UNL1       -0.0627
      6 C          -2.8682    1.6152    1.5122 C.2     1  UNL1       -0.0661
      7 C          -4.2941    1.3094    1.1008 C.3     1  UNL1       -0.0245
      8 C          -5.1686    1.0379    2.3219 C.3     1  UNL1        0.0098
      9 C          -4.9967    2.2336    3.2402 C.2     1  UNL1        0.1376
     10 O          -5.9391    2.9069    3.5891 O.2     1  UNL1       -0.2971
     11 C          -3.5974    2.5379    3.7004 C.3     1  UNL1        0.0272
     12 C          -1.8288    1.2168    0.4866 C.3     1  UNL1       -0.0163
     13 H          -1.9029    0.1082    0.3909 H       1  UNL1        0.0349
     14 C          -0.4076    1.5067    0.9325 C.3     1  UNL1       -0.0282
     15 H          -0.1868    0.6559    1.6606 H       1  UNL1        0.0312
     16 C           0.5832    1.3017   -0.1508 C.3     1  UNL1       -0.0284
     17 H           0.6798    0.1845   -0.2583 H       1  UNL1        0.0310
     18 C           2.0220    1.8050    0.0063 C.3     1  UNL1       -0.0458
     19 C           2.6181    1.5003   -1.3999 C.3     1  UNL1       -0.0118
     20 C           1.4154    1.3859   -2.3749 C.3     1  UNL1        0.1317
     21 C           0.2068    1.8445   -1.5390 C.3     1  UNL1        0.0111
     22 C          -1.1502    1.3208   -1.9395 C.3     1  UNL1       -0.0433
     23 C          -2.1765    1.7745   -0.8842 C.3     1  UNL1       -0.0456
     24 C           0.2142    3.3754   -1.6133 C.3     1  UNL1       -0.0558
     25 C           1.2597    0.0101   -2.8511 C.1     1  UNL1       -0.0704
     26 C           1.1348   -1.0930   -3.2329 C.1     1  UNL1       -0.1163
     27 O           1.5954    2.2794   -3.4773 O.3     1  UNL1       -0.3760
     28 H          -1.8532    3.8040    0.7562 H       1  UNL1        0.0233
     29 H          -0.9653    4.7807    1.9504 H       1  UNL1        0.0233
     30 H          -0.2024    4.3646    0.3970 H       1  UNL1        0.0233
     31 H          -0.7137    1.5733    3.5573 H       1  UNL1        0.0313
     32 H          -1.1073    3.3052    3.7119 H       1  UNL1        0.0313
     33 H          -4.3006    0.4295    0.4600 H       1  UNL1        0.0314
     34 H          -4.6996    2.1591    0.5566 H       1  UNL1        0.0314
     35 H          -4.8697    0.1926    2.7647 H       1  UNL1        0.0345
     36 H          -6.2108    0.9404    2.0238 H       1  UNL1        0.0345
     37 H          -3.4273    2.0258    4.5423 H       1  UNL1        0.0387
     38 H          -3.5169    3.6097    3.9032 H       1  UNL1        0.0387
     39 H           2.0650    2.8619    0.2338 H       1  UNL1        0.0269
     40 H           2.5464    1.2263    0.7697 H       1  UNL1        0.0269
     41 H           3.2765    2.3088   -1.7110 H       1  UNL1        0.0303
     42 H           3.1616    0.5567   -1.3728 H       1  UNL1        0.0303
     43 H          -1.4365    1.7216   -2.9140 H       1  UNL1        0.0272
     44 H          -1.1587    0.2311   -1.9798 H       1  UNL1        0.0272
     45 H          -2.2479    2.8519   -0.8602 H       1  UNL1        0.0271
     46 H          -3.1561    1.3790   -1.1827 H       1  UNL1        0.0271
     47 H           1.1515    3.7543   -1.2058 H       1  UNL1        0.0236
     48 H           0.1167    3.6892   -2.6525 H       1  UNL1        0.0236
     49 H          -0.6201    3.7713   -1.0343 H       1  UNL1        0.0236
     50 H           1.0231   -2.0796   -3.5743 H       1  UNL1        0.1229
     51 H           2.3827    2.0957   -4.0080 H       1  UNL1        0.2114
@<TRIPOS>BOND
     1     1     2    1
     2     1    28    1
     3     1    29    1
     4     1    30    1
     5     2     3    1
     6     2    14    1
     7     2     4    1
     8     4     5    1
     9     4    31    1
    10     4    32    1
    11     5    11    1
    12     5     6    2
    13     6     7    1
    14     6    12    1
    15     7     8    1
    16     7    33    1
    17     7    34    1
    18     8     9    1
    19     8    35    1
    20     8    36    1
    21     9    10    2
    22     9    11    1
    23    11    37    1
    24    11    38    1
    25    12    13    1
    26    12    23    1
    27    12    14    1
    28    14    15    1
    29    14    16    1
    30    16    17    1
    31    16    21    1
    32    16    18    1
    33    18    19    1
    34    18    39    1
    35    18    40    1
    36    19    20    1
    37    19    41    1
    38    19    42    1
    39    20    21    1
    40    20    25    1
    41    20    27    1
    42    21    22    1
    43    21    24    1
    44    22    23    1
    45    22    43    1
    46    22    44    1
    47    23    45    1
    48    23    46    1
    49    24    47    1
    50    24    48    1
    51    24    49    1
    52    25    26    3
    53    26    50    1
    54    27    51    1
