@<TRIPOS>MOLECULE
ZINC03800706
 46 48 0 0 0
SMALL
GASTEIGER

@<TRIPOS>ATOM
      1 C          -0.8699    1.3814   -3.6407 C.3     1  UNL1       -0.0433
      2 C           1.2687    1.7231   -2.5580 C.3     1  UNL1       -0.0433
      3 C          -0.7527    1.5927   -1.2315 C.3     1  UNL1       -0.0323
      4 C          -0.0127    1.0858    0.0080 C.3     1  UNL1       -0.0093
      5 C          -0.7288    1.5792    1.2668 C.3     1  UNL1       -0.0105
      6 C           0.0111    1.0724    2.5063 C.3     1  UNL1        0.1202
      7 C          -0.7246    1.4895    3.7589 C.ar    1  UNL1       -0.0060
      8 C          -1.8480    0.9922    4.3907 C.ar    1  UNL1       -0.0540
      9 C          -2.3091    1.5827    5.5494 C.ar    1  UNL1       -0.0440
     10 C          -1.6384    2.6852    6.0833 C.ar    1  UNL1        0.0521
     11 C          -0.5042    3.1845    5.4387 C.ar    1  UNL1       -0.0386
     12 C          -0.0535    2.5846    4.2841 C.ar    1  UNL1       -0.0144
     13 C           1.1152    2.8743    3.3710 C.3     1  UNL1        0.0747
     14 O           1.3126    1.6813    2.5904 O.3     1  UNL1       -0.3595
     15 C          -2.1126    3.3025    7.2852 C.1     1  UNL1        0.0992
     16 N          -2.4888    3.7922    8.2387 N.1     1  UNL1       -0.1909
     17 C           0.1422   -0.4280    2.4548 C.ar    1  UNL1       -0.0113
     18 C          -0.8234   -1.1842    1.8169 C.ar    1  UNL1       -0.0528
     19 C          -0.7018   -2.5598    1.7648 C.ar    1  UNL1       -0.0261
     20 C           0.3823   -3.1815    2.3609 C.ar    1  UNL1        0.1234
     21 C           1.3461   -2.4235    3.0040 C.ar    1  UNL1       -0.0261
     22 C           1.2251   -1.0476    3.0503 C.ar    1  UNL1       -0.0528
     23 F           0.4998   -4.5265    2.3146 F       1  UNL1       -0.2055
     24 H          -1.0432    2.4534   -3.7347 H       1  UNL1        0.0777
     25 H          -0.3376    1.0208   -4.5209 H       1  UNL1        0.0777
     26 H          -1.8260    0.8647   -3.5573 H       1  UNL1        0.0777
     27 H           1.8673    1.4548   -1.6875 H       1  UNL1        0.0777
     28 H           1.7557    1.3553   -3.4612 H       1  UNL1        0.0777
     29 H           1.1728    2.8075   -2.6128 H       1  UNL1        0.0777
     30 H          -1.7753    1.2154   -1.2238 H       1  UNL1        0.0814
     31 H          -0.7675    2.6825   -1.2255 H       1  UNL1        0.0814
     32 H           0.0021   -0.0041    0.0020 H       1  UNL1        0.0318
     33 H           1.0099    1.4631    0.0003 H       1  UNL1        0.0318
     34 H          -0.7436    2.6691    1.2728 H       1  UNL1        0.0301
     35 H          -1.7514    1.2020    1.2746 H       1  UNL1        0.0301
     36 H          -2.3660    0.1396    3.9771 H       1  UNL1        0.0622
     37 H          -3.1870    1.1926    6.0429 H       1  UNL1        0.0630
     38 H           0.0194    4.0365    5.8463 H       1  UNL1        0.0634
     39 H           2.0070    3.0900    3.9594 H       1  UNL1        0.0610
     40 H           0.8836    3.7161    2.7184 H       1  UNL1        0.0610
     41 H          -1.6711   -0.6993    1.3556 H       1  UNL1        0.0622
     42 H          -1.4542   -3.1500    1.2629 H       1  UNL1        0.0646
     43 H           2.1920   -2.9073    3.4696 H       1  UNL1        0.0646
     44 H           1.9770   -0.4561    3.5516 H       1  UNL1        0.0622
     45 N          -0.0617    1.0905   -2.4378 N.4     1  UNL1        0.2309
     46 H           0.0585    0.0742   -2.3545 H       1  UNL1        0.2028
@<TRIPOS>UNITY_ATOM_ATTR
45 1
charge 1
@<TRIPOS>BOND
     1     1    24    1
     2     1    25    1
     3     1    26    1
     4     1    45    1
     5     2    27    1
     6     2    28    1
     7     2    29    1
     8     2    45    1
     9     3     4    1
    10     3    30    1
    11     3    31    1
    12     3    45    1
    13     4     5    1
    14     4    32    1
    15     4    33    1
    16     5     6    1
    17     5    34    1
    18     5    35    1
    19     6    14    1
    20     6     7    1
    21     6    17    1
    22     7    12   ar
    23     7     8   ar
    24     8     9   ar
    25     8    36    1
    26     9    10   ar
    27     9    37    1
    28    10    11   ar
    29    10    15    1
    30    11    12   ar
    31    11    38    1
    32    12    13    1
    33    13    14    1
    34    13    39    1
    35    13    40    1
    36    15    16    3
    37    17    22   ar
    38    17    18   ar
    39    18    19   ar
    40    18    41    1
    41    19    20   ar
    42    19    42    1
    43    20    21   ar
    44    20    23    1
    45    21    22   ar
    46    21    43    1
    47    22    44    1
    48    45    46    1
