@<TRIPOS>MOLECULE
ZINC01530856
 33 34 0 0 0
SMALL
GASTEIGER

@<TRIPOS>ATOM
      1 C           1.0245    3.6850    2.5038 C.3     1  UNL1       -0.0640
      2 C           0.3245    4.0846    1.2033 C.3     1  UNL1       -0.0378
      3 C           1.1356    3.5752    0.0102 C.3     1  UNL1        0.0724
      4 C           2.5671    4.1158    0.0940 C.3     1  UNL1       -0.0267
      5 C           2.5205    5.6421   -0.0378 C.3     1  UNL1        0.0256
      6 C           1.8116    6.0059   -1.3157 C.2     1  UNL1        0.2193
      7 O           2.1016    7.0370   -1.8834 O.2     1  UNL1       -0.2754
      8 N           0.8653    5.2113   -1.8377 N.am    1  UNL1       -0.2557
      9 C           0.5014    4.0518   -1.2698 C.2     1  UNL1        0.2297
     10 O          -0.3542    3.3743   -1.7974 O.2     1  UNL1       -0.2744
     11 C           1.1645    2.0686    0.0273 C.ar    1  UNL1       -0.0323
     12 C          -0.0196    1.3565    0.0839 C.ar    1  UNL1       -0.0558
     13 C           0.0033   -0.0243    0.0994 C.ar    1  UNL1       -0.0408
     14 C           1.2175   -0.6978    0.0580 C.ar    1  UNL1        0.0246
     15 C           2.4051    0.0206    0.0011 C.ar    1  UNL1       -0.0408
     16 C           2.3750    1.4013   -0.0141 C.ar    1  UNL1       -0.0558
     17 N           1.2443   -2.0942    0.0739 N.pl3   1  UNL1       -0.3580
     18 H           0.3967    3.9564    3.3525 H       1  UNL1        0.0230
     19 H           1.1958    2.6085    2.5082 H       1  UNL1        0.0230
     20 H           1.9795    4.2052    2.5771 H       1  UNL1        0.0230
     21 H           0.2458    5.1706    1.1520 H       1  UNL1        0.0276
     22 H          -0.6732    3.6464    1.1781 H       1  UNL1        0.0276
     23 H           3.0050    3.8447    1.0547 H       1  UNL1        0.0283
     24 H           3.1648    3.6963   -0.7152 H       1  UNL1        0.0283
     25 H           3.5363    6.0367   -0.0597 H       1  UNL1        0.0359
     26 H           1.9831    6.0663    0.8103 H       1  UNL1        0.0359
     27 H           0.4270    5.4859   -2.6583 H       1  UNL1        0.1575
     28 H          -0.9634    1.8807    0.1116 H       1  UNL1        0.0621
     29 H          -0.9218   -0.5798    0.1433 H       1  UNL1        0.0636
     30 H           3.3508   -0.4999   -0.0308 H       1  UNL1        0.0636
     31 H           3.2979    1.9604   -0.0586 H       1  UNL1        0.0621
     32 H           0.4144   -2.5947    0.1140 H       1  UNL1        0.1423
     33 H           2.0928   -2.5633    0.0450 H       1  UNL1        0.1423
@<TRIPOS>BOND
     1     1     2    1
     2     1    18    1
     3     1    19    1
     4     1    20    1
     5     2     3    1
     6     2    21    1
     7     2    22    1
     8     3     9    1
     9     3     4    1
    10     3    11    1
    11     4     5    1
    12     4    23    1
    13     4    24    1
    14     5     6    1
    15     5    25    1
    16     5    26    1
    17     6     7    2
    18     6     8   am
    19     8     9   am
    20     8    27    1
    21     9    10    2
    22    11    16   ar
    23    11    12   ar
    24    12    13   ar
    25    12    28    1
    26    13    14   ar
    27    13    29    1
    28    14    15   ar
    29    14    17    1
    30    15    16   ar
    31    15    30    1
    32    16    31    1
    33    17    32    1
    34    17    33    1
