@<TRIPOS>MOLECULE
ZINC05276790
 48 51 0 0 0
SMALL
GASTEIGER

@<TRIPOS>ATOM
      1 C          -0.0127    1.0858    0.0080 C.3     1  UNL1       -0.0558
      2 C          -0.7288    1.5792    1.2668 C.3     1  UNL1        0.0111
      3 C          -0.0071    1.1060    2.5179 C.3     1  UNL1       -0.0435
      4 C           0.1116   -0.4199    2.4120 C.3     1  UNL1       -0.0488
      5 C          -1.2463   -1.1028    2.2613 C.3     1  UNL1       -0.0314
      6 H          -1.7997   -1.0016    3.1949 H       1  UNL1        0.0309
      7 C          -2.0830   -0.4993    1.1324 C.3     1  UNL1       -0.0339
      8 H          -1.5938   -0.6919    0.1776 H       1  UNL1        0.0307
      9 C          -2.1656    1.0012    1.3508 C.3     1  UNL1       -0.0289
     10 H          -2.5903    1.2146    2.3317 H       1  UNL1        0.0310
     11 C          -2.9255    1.7865    0.2865 C.3     1  UNL1       -0.0458
     12 C          -2.2157    3.1612    0.2088 C.3     1  UNL1       -0.0118
     13 C          -0.9928    3.0879    1.1878 C.3     1  UNL1        0.1317
     14 C          -1.3524    3.6236    2.5109 C.1     1  UNL1       -0.0704
     15 C          -1.6393    4.0508    3.5661 C.1     1  UNL1       -0.1163
     16 O           0.1428    3.7726    0.6553 O.3     1  UNL1       -0.3760
     17 C          -3.4970   -1.0696    1.0999 C.3     1  UNL1       -0.0460
     18 C          -3.5407   -2.5306    1.5285 C.3     1  UNL1       -0.0308
     19 C          -2.1947   -3.1636    1.2740 C.2     1  UNL1       -0.0629
     20 C          -2.0771   -4.1893    0.4376 C.2     1  UNL1       -0.0197
     21 C          -0.7750   -4.7957    0.1670 C.2     1  UNL1        0.1561
     22 O          -0.6917   -5.7466   -0.5819 O.2     1  UNL1       -0.2927
     23 C           0.4648   -4.2380    0.8203 C.3     1  UNL1        0.0104
     24 C           0.2466   -2.7498    1.1120 C.3     1  UNL1       -0.0392
     25 C          -0.9977   -2.5919    1.9876 C.3     1  UNL1       -0.0160
     26 H          -0.8515   -3.1165    2.9318 H       1  UNL1        0.0349
     27 H           0.0021   -0.0041    0.0020 H       1  UNL1        0.0236
     28 H           1.0099    1.4631    0.0003 H       1  UNL1        0.0236
     29 H          -0.5399    1.4469   -0.8751 H       1  UNL1        0.0236
     30 H           0.9852    1.5543    2.5674 H       1  UNL1        0.0272
     31 H          -0.5819    1.3757    3.4039 H       1  UNL1        0.0272
     32 H           0.7282   -0.6665    1.5476 H       1  UNL1        0.0268
     33 H           0.5976   -0.7991    3.3109 H       1  UNL1        0.0268
     34 H          -2.8659    1.2757   -0.6746 H       1  UNL1        0.0269
     35 H          -3.9665    1.9150    0.5830 H       1  UNL1        0.0269
     36 H          -1.8675    3.3457   -0.8074 H       1  UNL1        0.0303
     37 H          -2.8977    3.9526    0.5198 H       1  UNL1        0.0303
     38 H          -1.8958    4.4330    4.5098 H       1  UNL1        0.1229
     39 H           0.0273    4.7301    0.5846 H       1  UNL1        0.2114
     40 H          -3.8881   -0.9869    0.0858 H       1  UNL1        0.0271
     41 H          -4.1277   -0.4856    1.7702 H       1  UNL1        0.0271
     42 H          -4.3043   -3.0556    0.9547 H       1  UNL1        0.0310
     43 H          -3.7770   -2.5921    2.5908 H       1  UNL1        0.0310
     44 H          -2.9574   -4.5808   -0.0502 H       1  UNL1        0.0652
     45 H           0.6406   -4.7277    1.6743 H       1  UNL1        0.0345
     46 H           1.3162   -4.3592    0.1505 H       1  UNL1        0.0345
     47 H           0.1040   -2.2117    0.1748 H       1  UNL1        0.0275
     48 H           1.1146   -2.3496    1.6359 H       1  UNL1        0.0275
@<TRIPOS>BOND
     1     1     2    1
     2     1    27    1
     3     1    28    1
     4     1    29    1
     5     2     9    1
     6     2    13    1
     7     2     3    1
     8     3     4    1
     9     3    30    1
    10     3    31    1
    11     4     5    1
    12     4    32    1
    13     4    33    1
    14     5     6    1
    15     5    25    1
    16     5     7    1
    17     7     8    1
    18     7     9    1
    19     7    17    1
    20     9    10    1
    21     9    11    1
    22    11    12    1
    23    11    34    1
    24    11    35    1
    25    12    13    1
    26    12    36    1
    27    12    37    1
    28    13    14    1
    29    13    16    1
    30    14    15    3
    31    15    38    1
    32    16    39    1
    33    17    18    1
    34    17    40    1
    35    17    41    1
    36    18    19    1
    37    18    42    1
    38    18    43    1
    39    19    25    1
    40    19    20    2
    41    20    21    1
    42    20    44    1
    43    21    22    2
    44    21    23    1
    45    23    24    1
    46    23    45    1
    47    23    46    1
    48    24    25    1
    49    24    47    1
    50    24    48    1
    51    25    26    1
