@<TRIPOS>MOLECULE
ZINC00001084
 24 25 0 0 0
SMALL
GASTEIGER

@<TRIPOS>ATOM
      1 C           1.1060    2.5021    5.3100 C.3     1  UNL1        0.0135
      2 N          -0.2578    2.5607    4.7782 N.ar    1  UNL1       -0.3277
      3 C          -1.3638    2.9387    5.4483 C.ar    1  UNL1        0.0986
      4 N          -2.4046    2.8673    4.6582 N.ar    1  UNL1       -0.2177
      5 C          -2.0269    2.4437    3.4493 C.ar    1  UNL1        0.1678
      6 C          -0.6537    2.2384    3.4955 C.ar    1  UNL1        0.1512
      7 C           0.0130    1.7833    2.3376 C.ar    1  UNL1        0.2822
      8 O           1.2164    1.5962    2.3529 O.2     1  UNL1       -0.2652
      9 N          -0.6984    1.5583    1.2133 N.ar    1  UNL1       -0.2622
     10 C          -2.0260    1.7663    1.1811 C.ar    1  UNL1        0.3331
     11 O          -2.6337    1.5576    0.1487 O.2     1  UNL1       -0.2462
     12 N          -2.7007    2.1952    2.2645 N.ar    1  UNL1       -0.2796
     13 C          -4.1487    2.4041    2.1889 C.3     1  UNL1        0.0181
     14 C          -0.0127    1.0858    0.0080 C.3     1  UNL1        0.0196
     15 H           1.6001    3.4603    5.1493 H       1  UNL1        0.0456
     16 H           1.0706    2.2860    6.3778 H       1  UNL1        0.0456
     17 H           1.6620    1.7163    4.7985 H       1  UNL1        0.0456
     18 H          -1.3878    3.2533    6.4812 H       1  UNL1        0.1029
     19 H          -4.3522    3.4287    1.8776 H       1  UNL1        0.0458
     20 H          -4.5784    1.7122    1.4645 H       1  UNL1        0.0458
     21 H          -4.5930    2.2269    3.1684 H       1  UNL1        0.0458
     22 H           0.0021   -0.0041    0.0020 H       1  UNL1        0.0458
     23 H           1.0099    1.4631    0.0003 H       1  UNL1        0.0458
     24 H          -0.5399    1.4469   -0.8751 H       1  UNL1        0.0458
@<TRIPOS>BOND
     1     1     2    1
     2     1    15    1
     3     1    16    1
     4     1    17    1
     5     2     6   ar
     6     2     3   ar
     7     3     4   ar
     8     3    18    1
     9     4     5   ar
    10     5    12   ar
    11     5     6   ar
    12     6     7   ar
    13     7     8    2
    14     7     9   ar
    15     9    10   ar
    16     9    14    1
    17    10    11    2
    18    10    12   ar
    19    12    13    1
    20    13    19    1
    21    13    20    1
    22    13    21    1
    23    14    22    1
    24    14    23    1
    25    14    24    1
