@<TRIPOS>MOLECULE
ZINC00119978
 35 37 0 0 0
SMALL
GASTEIGER

@<TRIPOS>ATOM
      1 C           0.0402   -2.7733   -0.0123 C.ar    1  UNL1       -0.0513
      2 C           0.0194   -2.0801   -1.2087 C.ar    1  UNL1       -0.0162
      3 C          -0.0057   -0.6951   -1.2063 C.ar    1  UNL1        0.1582
      4 C           0.0021   -0.0041    0.0020 C.ar    1  UNL1        0.1586
      5 C           0.0229   -0.7046    1.1969 C.ar    1  UNL1       -0.0098
      6 C           0.0417   -2.0873    1.1875 C.ar    1  UNL1       -0.0012
      7 C           0.0644   -2.8477    2.4884 C.3     1  UNL1        0.1513
      8 H           0.4141   -2.1956    3.2887 H       1  UNL1        0.0811
      9 C          -1.3459   -3.3556    2.8147 C.3     1  UNL1        0.1004
     10 H          -2.0434   -2.5181    2.8312 H       1  UNL1        0.0637
     11 C          -1.3090   -4.0247    4.1909 C.3     1  UNL1        0.0092
     12 C          -0.1450   -4.9807    4.2600 C.ar    1  UNL1        0.0384
     13 C          -0.1383   -5.9545    5.2524 C.ar    1  UNL1        0.1270
     14 C           0.9163   -6.8474    5.3477 C.ar    1  UNL1        0.0218
     15 C           1.9704   -6.7695    4.4496 C.ar    1  UNL1        0.1238
     16 C           1.9641   -5.8006    3.4601 C.ar    1  UNL1        0.0221
     17 C           0.9047   -4.9044    3.3623 C.ar    1  UNL1        0.1317
     18 O           0.9337   -3.9749    2.3717 O.3     1  UNL1       -0.4811
     19 O           3.0075   -7.6429    4.5402 O.3     1  UNL1       -0.5065
     20 O          -1.1706   -6.0302    6.1330 O.3     1  UNL1       -0.5063
     21 O          -1.7563   -4.3048    1.8284 O.3     1  UNL1       -0.3875
     22 O          -0.0164    1.3557    0.0095 O.3     1  UNL1       -0.5033
     23 O          -0.0318   -0.0120   -2.3819 O.3     1  UNL1       -0.5033
     24 H           0.0556   -3.8532   -0.0155 H       1  UNL1        0.0623
     25 H           0.0183   -2.6186   -2.1448 H       1  UNL1        0.0655
     26 H           0.0242   -0.1709    2.1358 H       1  UNL1        0.0659
     27 H          -1.1984   -3.2623    4.9620 H       1  UNL1        0.0342
     28 H          -2.2374   -4.5724    4.3530 H       1  UNL1        0.0342
     29 H           0.9179   -7.6024    6.1198 H       1  UNL1        0.0691
     30 H           2.7852   -5.7407    2.7611 H       1  UNL1        0.0691
     31 H           2.8868   -8.4518    4.0242 H       1  UNL1        0.2921
     32 H          -1.8911   -6.6076    5.8456 H       1  UNL1        0.2921
     33 H          -2.6410   -4.6666    1.9749 H       1  UNL1        0.2100
     34 H           0.8616    1.7610    0.0033 H       1  UNL1        0.2923
     35 H           0.8439    0.1977   -2.7345 H       1  UNL1        0.2923
@<TRIPOS>BOND
     1     1     6   ar
     2     1     2   ar
     3     1    24    1
     4     2     3   ar
     5     2    25    1
     6     3     4   ar
     7     3    23    1
     8     4     5   ar
     9     4    22    1
    10     5     6   ar
    11     5    26    1
    12     6     7    1
    13     7     8    1
    14     7    18    1
    15     7     9    1
    16     9    10    1
    17     9    11    1
    18     9    21    1
    19    11    12    1
    20    11    27    1
    21    11    28    1
    22    12    17   ar
    23    12    13   ar
    24    13    14   ar
    25    13    20    1
    26    14    15   ar
    27    14    29    1
    28    15    16   ar
    29    15    19    1
    30    16    17   ar
    31    16    30    1
    32    17    18    1
    33    19    31    1
    34    20    32    1
    35    21    33    1
    36    22    34    1
    37    23    35    1
