@<TRIPOS>MOLECULE
ZINC03830199
 56 59 0 0 0
SMALL
GASTEIGER

@<TRIPOS>ATOM
      1 C          -0.2659   -1.5830    2.0978 C.3     1  UNL1       -0.0058
      2 C           0.5927   -0.3453    2.1423 C.2     1  UNL1        0.1339
      3 O           1.7731   -0.4202    1.8987 O.2     1  UNL1       -0.2974
      4 C          -0.0218    0.9859    2.4907 C.3     1  UNL1        0.0233
      5 H          -0.7453    0.8520    3.1679 H       1  UNL1        0.0383
      6 C           1.0582    1.9461    3.0321 C.3     1  UNL1       -0.0427
      7 C           1.0835    3.1592    2.0756 C.3     1  UNL1       -0.0488
      8 C          -0.3431    3.1621    1.4449 C.3     1  UNL1       -0.0311
      9 H          -0.3862    3.7248    0.5124 H       1  UNL1        0.0309
     10 C          -0.5796    1.6576    1.2307 C.3     1  UNL1       -0.0128
     11 C          -2.0281    1.3197    0.9656 C.3     1  UNL1        0.0124
     12 C          -2.9305    1.9900    1.9531 C.2     1  UNL1        0.1378
     13 O          -3.7737    1.3737    2.5592 O.2     1  UNL1       -0.2971
     14 C          -2.7402    3.4792    2.1623 C.3     1  UNL1        0.0262
     15 H          -2.9735    3.9665    1.3208 H       1  UNL1        0.0385
     16 C          -1.2796    3.7246    2.5184 C.3     1  UNL1       -0.0277
     17 H          -1.0759    3.2140    3.4596 H       1  UNL1        0.0310
     18 C          -0.9893    5.2138    2.6992 C.3     1  UNL1       -0.0490
     19 C          -2.1342    5.8989    3.4496 C.3     1  UNL1       -0.0493
     20 C          -2.8780    4.8396    4.2535 C.3     1  UNL1       -0.0326
     21 H          -2.1568    4.2364    4.8049 H       1  UNL1        0.0307
     22 C          -3.6542    3.9387    3.2889 C.3     1  UNL1       -0.0193
     23 C          -4.2386    2.7710    4.0809 C.3     1  UNL1       -0.0444
     24 C          -5.2296    3.3441    5.1045 C.3     1  UNL1       -0.0263
     25 C          -4.5126    4.3109    6.0462 C.3     1  UNL1        0.0555
     26 H          -3.7428    3.7718    6.5984 H       1  UNL1        0.0593
     27 C          -3.8772    5.4466    5.2332 C.3     1  UNL1       -0.0235
     28 O          -5.4568    4.8610    6.9670 O.3     1  UNL1       -0.3918
     29 C          -4.8018    4.7441    2.6764 C.3     1  UNL1       -0.0587
     30 C           0.2538    1.2029    0.0309 C.3     1  UNL1       -0.0583
     31 H          -0.6342   -1.7002    1.1755 H       1  UNL1        0.0306
     32 H           0.3361   -2.4525    2.3619 H       1  UNL1        0.0306
     33 H          -1.0874   -1.4810    2.8068 H       1  UNL1        0.0306
     34 H           0.7993    2.2701    4.0401 H       1  UNL1        0.0272
     35 H           2.0300    1.4523    3.0355 H       1  UNL1        0.0272
     36 H           1.2590    4.0810    2.6303 H       1  UNL1        0.0268
     37 H           1.8445    3.0252    1.3068 H       1  UNL1        0.0268
     38 H          -2.2782    1.6230    0.0461 H       1  UNL1        0.0347
     39 H          -2.1672    0.2416    1.0463 H       1  UNL1        0.0347
     40 H          -0.0658    5.3336    3.2657 H       1  UNL1        0.0268
     41 H          -0.8731    5.6786    1.7202 H       1  UNL1        0.0268
     42 H          -1.7317    6.6560    4.1226 H       1  UNL1        0.0268
     43 H          -2.8142    6.3651    2.7365 H       1  UNL1        0.0268
     44 H          -4.7579    2.0907    3.4058 H       1  UNL1        0.0272
     45 H          -3.4397    2.2392    4.5976 H       1  UNL1        0.0272
     46 H          -6.0251    3.8736    4.5801 H       1  UNL1        0.0290
     47 H          -5.6604    2.5290    5.6860 H       1  UNL1        0.0290
     48 H          -3.3582    6.1206    5.9148 H       1  UNL1        0.0293
     49 H          -4.6420    5.9951    4.6833 H       1  UNL1        0.0293
     50 H          -5.9003    4.2008    7.5170 H       1  UNL1        0.2098
     51 H          -4.3973    5.6005    2.1369 H       1  UNL1        0.0235
     52 H          -5.3620    4.1121    1.9872 H       1  UNL1        0.0235
     53 H          -5.4639    5.0935    3.4687 H       1  UNL1        0.0235
     54 H           0.1025    0.1359   -0.1332 H       1  UNL1        0.0235
     55 H           1.3087    1.3942    0.2277 H       1  UNL1        0.0235
     56 H          -0.0560    1.7545   -0.8567 H       1  UNL1        0.0235
@<TRIPOS>BOND
     1     1     2    1
     2     1    31    1
     3     1    32    1
     4     1    33    1
     5     2     3    2
     6     2     4    1
     7     4     5    1
     8     4    10    1
     9     4     6    1
    10     6     7    1
    11     6    34    1
    12     6    35    1
    13     7     8    1
    14     7    36    1
    15     7    37    1
    16     8     9    1
    17     8    16    1
    18     8    10    1
    19    10    11    1
    20    10    30    1
    21    11    12    1
    22    11    38    1
    23    11    39    1
    24    12    13    2
    25    12    14    1
    26    14    15    1
    27    14    22    1
    28    14    16    1
    29    16    17    1
    30    16    18    1
    31    18    19    1
    32    18    40    1
    33    18    41    1
    34    19    20    1
    35    19    42    1
    36    19    43    1
    37    20    21    1
    38    20    27    1
    39    20    22    1
    40    22    23    1
    41    22    29    1
    42    23    24    1
    43    23    44    1
    44    23    45    1
    45    24    25    1
    46    24    46    1
    47    24    47    1
    48    25    26    1
    49    25    27    1
    50    25    28    1
    51    27    48    1
    52    27    49    1
    53    28    50    1
    54    29    51    1
    55    29    52    1
    56    29    53    1
    57    30    54    1
    58    30    55    1
    59    30    56    1
