@<TRIPOS>MOLECULE
ZINC08551108
 50 52 0 0 0
SMALL
GASTEIGER

@<TRIPOS>ATOM
      1 C          -6.3947   -3.5691    4.3032 C.3     1  UNL1       -0.0394
      2 C          -5.8630   -2.2575    3.7854 C.ar    1  UNL1       -0.0454
      3 C          -6.7190   -1.3581    3.2252 C.ar    1  UNL1       -0.0311
      4 C          -6.2292   -0.1299    2.7394 C.ar    1  UNL1        0.0886
      5 C          -4.8478    0.1514    2.8419 C.ar    1  UNL1        0.0694
      6 C          -3.9962   -0.7865    3.4192 C.ar    1  UNL1       -0.0329
      7 C          -4.5040   -1.9789    3.8854 C.ar    1  UNL1       -0.0455
      8 C          -3.5784   -2.9914    4.5091 C.3     1  UNL1       -0.0394
      9 N          -4.3441    1.3467    2.3742 N.ar    1  UNL1       -0.3195
     10 C          -5.2076    2.2435    1.8203 C.ar    1  UNL1        0.1705
     11 N          -4.8047    3.4091    1.3425 N.ar    1  UNL1       -0.1733
     12 C          -5.6599    4.2718    0.7994 C.ar    1  UNL1        0.3505
     13 O          -5.2189    5.3292    0.3845 O.2     1  UNL1       -0.2446
     14 N          -6.9767    4.0500    0.6807 N.ar    1  UNL1       -0.2717
     15 H          -7.5555    4.7487    0.2603 H       1  UNL1        0.1735
     16 C          -7.5380    2.8992    1.1186 C.ar    1  UNL1        0.2817
     17 O          -8.7318    2.6954    1.0118 O.2     1  UNL1       -0.2653
     18 C          -6.6363    1.8992    1.7326 C.ar    1  UNL1        0.1712
     19 N          -7.0729    0.7533    2.1892 N.ar    1  UNL1       -0.2368
     20 C          -2.9141    1.6482    2.4761 C.3     1  UNL1        0.0538
     21 C          -2.1980    1.1548    1.2173 C.3     1  UNL1        0.1014
     22 H          -2.6718    1.5879    0.3364 H       1  UNL1        0.0638
     23 C          -0.7288    1.5792    1.2668 C.3     1  UNL1        0.1106
     24 H          -0.2550    1.1461    2.1477 H       1  UNL1        0.0646
     25 C          -0.0127    1.0858    0.0080 C.3     1  UNL1        0.1070
     26 H           0.0021   -0.0041    0.0020 H       1  UNL1        0.0643
     27 C           1.4227    1.6154   -0.0028 C.3     1  UNL1        0.0793
     28 O           2.1264    1.0612   -1.1162 O.3     1  UNL1       -0.3646
     29 P           3.6668    1.4020   -1.4377 P.3     1  UNL1       -0.0150
     30 O           3.8358    2.8685   -1.5441 O.2     1  UNL1       -0.6377
     31 O          -0.7038    1.5592   -1.1497 O.3     1  UNL1       -0.3869
     32 O          -0.6468    3.0043    1.3339 O.3     1  UNL1       -0.3865
     33 O          -2.2800   -0.2703    1.1502 O.3     1  UNL1       -0.3874
     34 H          -6.3679   -4.3121    3.5062 H       1  UNL1        0.0278
     35 H          -5.7784   -3.9074    5.1362 H       1  UNL1        0.0278
     36 H          -7.4222   -3.4364    4.6418 H       1  UNL1        0.0278
     37 H          -7.7722   -1.5863    3.1538 H       1  UNL1        0.0642
     38 H          -2.9394   -0.5796    3.5011 H       1  UNL1        0.0641
     39 H          -3.2000   -3.6617    3.7374 H       1  UNL1        0.0278
     40 H          -2.7435   -2.4763    4.9842 H       1  UNL1        0.0278
     41 H          -4.1222   -3.5686    5.2570 H       1  UNL1        0.0278
     42 H          -2.4985    1.1473    3.3504 H       1  UNL1        0.0519
     43 H          -2.7759    2.7249    2.5743 H       1  UNL1        0.0519
     44 H           1.4084    2.7021   -0.0864 H       1  UNL1        0.0589
     45 H           1.9227    1.3287    0.9223 H       1  UNL1        0.0589
     46 H          -0.7557    2.5229   -1.2101 H       1  UNL1        0.2100
     47 H          -1.0494    3.4574    0.5804 H       1  UNL1        0.2100
     48 H          -1.8774   -0.7233    1.9037 H       1  UNL1        0.2100
     49 O           4.5996    0.8390   -0.2524 O.co2   1  UNL1       -0.5770
     50 O           4.0905    0.7106   -2.8285 O.co2   1  UNL1       -0.5770
@<TRIPOS>UNITY_ATOM_ATTR
49 1
charge -1
50 1
charge -1
@<TRIPOS>BOND
     1     1     2    1
     2     1    34    1
     3     1    35    1
     4     1    36    1
     5     2     7   ar
     6     2     3   ar
     7     3     4   ar
     8     3    37    1
     9     4    19   ar
    10     4     5   ar
    11     5     6   ar
    12     5     9   ar
    13     6     7   ar
    14     6    38    1
    15     7     8    1
    16     8    39    1
    17     8    40    1
    18     8    41    1
    19     9    10   ar
    20     9    20    1
    21    10    18    1
    22    10    11   ar
    23    11    12   ar
    24    12    13    2
    25    12    14   ar
    26    14    15    1
    27    14    16   ar
    28    16    17    2
    29    16    18   ar
    30    18    19   ar
    31    20    21    1
    32    20    42    1
    33    20    43    1
    34    21    22    1
    35    21    23    1
    36    21    33    1
    37    23    24    1
    38    23    25    1
    39    23    32    1
    40    25    26    1
    41    25    27    1
    42    25    31    1
    43    27    28    1
    44    27    44    1
    45    27    45    1
    46    28    29    1
    47    29    30    2
    48    29    49    1
    49    29    50    1
    50    31    46    1
    51    32    47    1
    52    33    48    1
