@<TRIPOS>MOLECULE
ZINC11592625
 58 61 0 0 0
SMALL
GASTEIGER

@<TRIPOS>ATOM
      1 C           4.6915    5.4306   -0.8499 C.3     1  UNL1       -0.0312
      2 C           3.4752    6.2047   -1.3618 C.3     1  UNL1        0.0983
      3 C           3.7258    6.6470   -2.7794 C.ar    1  UNL1       -0.0014
      4 C           4.2301    7.9057   -3.0309 C.ar    1  UNL1       -0.0549
      5 C           4.4737    8.3130   -4.3320 C.ar    1  UNL1       -0.0579
      6 C           4.2175    7.4644   -5.3913 C.ar    1  UNL1       -0.0194
      7 C           3.7066    6.1965   -5.1569 C.ar    1  UNL1        0.1280
      8 C           3.4520    5.7855   -3.8425 C.ar    1  UNL1        0.0693
      9 C           2.8773    4.4514   -3.5770 C.2     1  UNL1        0.1968
     10 O           2.8283    3.6109   -4.4571 O.2     1  UNL1       -0.2867
     11 C           2.3809    4.1648   -2.2705 C.2     1  UNL1        0.0490
     12 C           2.0412    2.9085   -1.9726 C.2     1  UNL1        0.1410
     13 C           1.4673    2.4810   -0.6487 C.3     1  UNL1        0.1960
     14 C           0.9553    3.7133    0.0978 C.3     1  UNL1        0.0789
     15 H           0.1093    4.1179   -0.4578 H       1  UNL1        0.0423
     16 C           2.0911    4.7722    0.1279 C.3     1  UNL1        0.0771
     17 H           1.8067    5.5840    0.7973 H       1  UNL1        0.0606
     18 C           2.2411    5.3071   -1.2991 C.3     1  UNL1        0.0503
     19 H           1.3584    5.8920   -1.5577 H       1  UNL1        0.0408
     20 O           3.3265    4.1990    0.5608 O.3     1  UNL1       -0.3905
     21 C           0.4629    3.3620    1.4881 C.3     1  UNL1        0.0465
     22 H          -0.4688    2.8030    1.4023 H       1  UNL1        0.0939
     23 C           1.4560    2.5377    2.2509 C.2     1  UNL1        0.1579
     24 C           2.4464    1.8207    1.6272 C.2     1  UNL1        0.1248
     25 C           2.5905    1.8601    0.1602 C.2     1  UNL1        0.2109
     26 O           3.5727    1.4081   -0.3913 O.2     1  UNL1       -0.2882
     27 C           3.3740    1.0045    2.4265 C.2     1  UNL1        0.2485
     28 O           4.5011    1.4052    2.6475 O.2     1  UNL1       -0.2702
     29 N           2.9748   -0.1870    2.9138 N.am    1  UNL1       -0.3252
     30 O           1.3736    2.4992    3.5891 O.2     1  UNL1       -0.5050
     31 C          -0.8825    4.4219    3.1995 C.3     1  UNL1       -0.0426
     32 C           1.4269    5.0818    2.8936 C.3     1  UNL1       -0.0426
     33 O           0.4104    1.5389   -0.8427 O.3     1  UNL1       -0.3730
     34 O           2.2241    1.9639   -2.9166 O.2     1  UNL1       -0.5073
     35 O           3.4545    5.3596   -6.1947 O.3     1  UNL1       -0.5060
     36 O           3.2675    7.3532   -0.5373 O.3     1  UNL1       -0.3835
     37 H           4.6788    4.4209   -1.2605 H       1  UNL1        0.0261
     38 H           5.6037    5.9386   -1.1629 H       1  UNL1        0.0261
     39 H           4.6587    5.3806    0.2385 H       1  UNL1        0.0261
     40 H           4.4355    8.5767   -2.2100 H       1  UNL1        0.0621
     41 H           4.8673    9.3010   -4.5197 H       1  UNL1        0.0619
     42 H           4.4154    7.7882   -6.4024 H       1  UNL1        0.0654
     43 H           3.3343    3.9387    1.4921 H       1  UNL1        0.2098
     44 H           2.1047   -0.5422    2.6737 H       1  UNL1        0.1453
     45 H           3.5576   -0.6893    3.5045 H       1  UNL1        0.1453
     46 H           2.0982    1.9126    3.9509 H       1  UNL1        0.2919
     47 H          -0.6482    3.5847    3.8569 H       1  UNL1        0.0778
     48 H          -0.9958    5.3292    3.7929 H       1  UNL1        0.0778
     49 H          -1.8117    4.2172    2.6676 H       1  UNL1        0.0778
     50 H           2.2710    4.9923    2.2097 H       1  UNL1        0.0778
     51 H           1.2998    6.1261    3.1790 H       1  UNL1        0.0778
     52 H           1.6155    4.4822    3.7841 H       1  UNL1        0.0778
     53 H           0.6824    0.7312   -1.2995 H       1  UNL1        0.2113
     54 H           1.9299    1.0765   -2.5616 H       1  UNL1        0.2918
     55 H           4.2027    4.7969   -6.4368 H       1  UNL1        0.2922
     56 H           4.0119    7.9704   -0.5277 H       1  UNL1        0.2106
     57 N           0.1983    4.6234    2.2117 N.4     1  UNL1        0.2389
     58 H          -0.0957    5.3395    1.5371 H       1  UNL1        0.2035
@<TRIPOS>UNITY_ATOM_ATTR
57 1
charge 1
@<TRIPOS>BOND
     1     1     2    1
     2     1    37    1
     3     1    38    1
     4     1    39    1
     5     2    18    1
     6     2     3    1
     7     2    36    1
     8     3     8   ar
     9     3     4   ar
    10     4     5   ar
    11     4    40    1
    12     5     6   ar
    13     5    41    1
    14     6     7   ar
    15     6    42    1
    16     7     8   ar
    17     7    35    1
    18     8     9    1
    19     9    10    2
    20     9    11    1
    21    11    18    1
    22    11    12    2
    23    12    13    1
    24    12    34    1
    25    13    25    1
    26    13    14    1
    27    13    33    1
    28    14    15    1
    29    14    16    1
    30    14    21    1
    31    16    17    1
    32    16    18    1
    33    16    20    1
    34    18    19    1
    35    20    43    1
    36    21    22    1
    37    21    23    1
    38    21    57    1
    39    23    24    2
    40    23    30    1
    41    24    25    1
    42    24    27    1
    43    25    26    2
    44    27    28    2
    45    27    29   am
    46    29    44    1
    47    29    45    1
    48    30    46    1
    49    31    47    1
    50    31    48    1
    51    31    49    1
    52    31    57    1
    53    32    50    1
    54    32    51    1
    55    32    52    1
    56    32    57    1
    57    33    53    1
    58    34    54    1
    59    35    55    1
    60    36    56    1
    61    57    58    1
