@<TRIPOS>MOLECULE
ZINC03830689
 7 6 0 0 0
SMALL
GASTEIGER

@<TRIPOS>ATOM
      1 C          -0.0224    1.7987    0.0119 C.3     1  UNL1        0.1466
      2 C          -0.7277    2.2847    1.2518 C.2     1  UNL1        0.0742
      3 O          -1.2474    1.4921    2.0011 O.co2   1  UNL1       -0.5471
      4 CL          0.0021   -0.0041    0.0020 Cl      1  UNL1       -0.0982
      5 CL          1.6691    2.4228   -0.0009 Cl      1  UNL1       -0.0982
      6 H          -0.5496    2.1598   -0.8711 H       1  UNL1        0.0696
      7 O          -0.7787    3.5982    1.5237 O.co2   1  UNL1       -0.5471
@<TRIPOS>UNITY_ATOM_ATTR
7 1
charge -1
@<TRIPOS>BOND
     1     1     2    1
     2     1     4    1
     3     1     5    1
     4     1     6    1
     5     2     3   ar
     6     2     7   ar
