@<TRIPOS>MOLECULE
ZINC03830400
 50 53 0 0 0
SMALL
GASTEIGER

@<TRIPOS>ATOM
      1 C          -4.4354    9.5647   -2.5991 C.3     1  UNL1        0.0346
      2 N          -3.5676    9.5299   -1.4193 N.ar    1  UNL1       -0.2233
      3 C          -2.9045    8.4612   -0.9177 C.ar    1  UNL1        0.2094
      4 N          -2.2522    8.8756    0.1467 N.ar    1  UNL1       -0.1015
      5 N          -2.4546   10.1292    0.3385 N.ar    1  UNL1       -0.0222
      6 N          -3.2440   10.5991   -0.5658 N.ar    1  UNL1       -0.0435
      7 S          -2.9188    6.8223   -1.5646 S.3     1  UNL1       -0.0801
      8 C          -1.8255    6.0056   -0.3757 C.3     1  UNL1        0.0251
      9 C          -1.6851    4.5500   -0.7399 C.2     1  UNL1       -0.0264
     10 CA         -2.4037    3.7034   -0.0089 C.2     1  UNL1        0.0607
     11 N          -2.3073    2.3145   -0.2329 N.am    1  UNL1       -0.2533
     12 C          -1.7875    1.6559   -1.4736 C.3     1  UNL1        0.1041
     13 H          -2.4862    1.5527   -2.3038 H       1  UNL1        0.0644
     14 CA         -1.6614    0.4516   -0.5555 C.3     1  UNL1        0.1284
     15 HA         -2.1802   -0.4310   -0.9296 H       1  UNL1        0.0622
     16 C          -2.4418    1.1996    0.5022 C.2     1  UNL1        0.2438
     17 O          -2.9645    0.9146    1.5590 O.2     1  UNL1       -0.2731
     18 N          -0.2794    0.1668   -0.1615 N.am    1  UNL1       -0.2984
     19 C           0.0724   -1.0805    0.2087 C.2     1  UNL1        0.2592
     20 O          -0.7551   -1.9671    0.2158 O.2     1  UNL1       -0.2713
     21 C           1.4940   -1.3734    0.6140 C.3     1  UNL1        0.2030
     22 H           2.1701   -1.0640   -0.1830 H       1  UNL1        0.0885
     23 C           1.8233   -0.6159    1.8745 C.ar    1  UNL1        0.0017
     24 C           1.4962   -1.1495    3.1070 C.ar    1  UNL1       -0.0546
     25 C           1.8022   -0.4566    4.2634 C.ar    1  UNL1       -0.0614
     26 C           2.4267    0.7743    4.1868 C.ar    1  UNL1       -0.0617
     27 C           2.7494    1.3101    2.9540 C.ar    1  UNL1       -0.0614
     28 C           2.4474    0.6152    1.7979 C.ar    1  UNL1       -0.0546
     29 O           1.6458   -2.7978    0.8518 O.3     1  UNL1       -0.4492
     30 C           2.8547   -3.3300    0.6130 C.2     1  UNL1        0.2953
     31 O           3.0413   -4.5102    0.7927 O.2     1  UNL1       -0.2546
     32 S          -0.2242    2.5103   -1.8684 S.3     1  UNL1       -0.1311
     33 C          -0.7552    4.2509   -1.8704 C.3     1  UNL1        0.0195
     34 C          -3.3054    4.2149    1.0390 C.2     1  UNL1        0.0860
     35 O          -3.3932    3.6330    2.1021 O.co2   1  UNL1       -0.5433
     36 H          -5.4613    9.3471   -2.3020 H       1  UNL1        0.0474
     37 H          -4.3909   10.5543   -3.0538 H       1  UNL1        0.0474
     38 H          -4.0997    8.8185   -3.3193 H       1  UNL1        0.0474
     39 H          -2.2489    6.0905    0.6251 H       1  UNL1        0.0427
     40 H          -0.8451    6.4816   -0.3970 H       1  UNL1        0.0427
     41 H           0.3825    0.8759   -0.1671 H       1  UNL1        0.1497
     42 H           1.0047   -2.1093    3.1667 H       1  UNL1        0.0622
     43 H           1.5504   -0.8753    5.2265 H       1  UNL1        0.0618
     44 H           2.6627    1.3172    5.0901 H       1  UNL1        0.0618
     45 H           3.2373    2.2718    2.8942 H       1  UNL1        0.0618
     46 H           2.6992    1.0340    0.8347 H       1  UNL1        0.0622
     47 H           3.6605   -2.7034    0.2603 H       1  UNL1        0.1512
     48 H           0.1236    4.8901   -1.7858 H       1  UNL1        0.0423
     49 H          -1.2613    4.4665   -2.8114 H       1  UNL1        0.0423
     50 OXT        -4.0323    5.3281    0.8181 O.co2   1  UNL1       -0.5433
@<TRIPOS>UNITY_ATOM_ATTR
50 1
charge -1
@<TRIPOS>BOND
     1     1     2    1
     2     1    36    1
     3     1    37    1
     4     1    38    1
     5     2     6   ar
     6     2     3   ar
     7     3     4   ar
     8     3     7    1
     9     4     5   ar
    10     5     6   ar
    11     7     8    1
    12     8     9    1
    13     8    39    1
    14     8    40    1
    15     9    33    1
    16     9    10    2
    17    10    11    1
    18    10    34    1
    19    11    16   am
    20    11    12    1
    21    12    13    1
    22    12    14    1
    23    12    32    1
    24    14    15    1
    25    14    16    1
    26    14    18    1
    27    16    17    2
    28    18    19   am
    29    18    41    1
    30    19    20    2
    31    19    21    1
    32    21    22    1
    33    21    23    1
    34    21    29    1
    35    23    28   ar
    36    23    24   ar
    37    24    25   ar
    38    24    42    1
    39    25    26   ar
    40    25    43    1
    41    26    27   ar
    42    26    44    1
    43    27    28   ar
    44    27    45    1
    45    28    46    1
    46    29    30    1
    47    30    31    2
    48    30    47    1
    49    32    33    1
    50    33    48    1
    51    33    49    1
    52    34    35   ar
    53    34    50   ar
