@<TRIPOS>MOLECULE
ZINC03593750
 46 47 0 0 0
SMALL
GASTEIGER

@<TRIPOS>ATOM
      1 C           3.8374    2.8458    2.0190 C.3     1  UNL1       -0.0245
      2 C           3.4691    3.2695    0.5957 C.3     1  UNL1       -0.0348
      3 C           1.5881    4.0654   -0.7047 C.3     1  UNL1       -0.0348
      4 C           1.7674    5.5467   -0.3662 C.3     1  UNL1       -0.0245
      5 C           1.5137    1.8698    0.3134 C.3     1  UNL1       -0.0306
      6 C          -0.0136    1.8661    0.4045 C.3     1  UNL1        0.0055
      7 C          -0.5211    0.4228    0.4028 C.3     1  UNL1        0.0774
      8 C          -2.0427    0.4147    0.5846 C.3     1  UNL1       -0.0265
      9 C          -2.3716    0.9860    1.9682 C.3     1  UNL1        0.0256
     10 C          -1.6342    0.1957    3.0167 C.2     1  UNL1        0.2193
     11 O          -2.1089    0.0940    4.1276 O.2     1  UNL1       -0.2754
     12 N          -0.4621   -0.3976    2.7455 N.am    1  UNL1       -0.2557
     13 C           0.1161   -0.3361    1.5367 C.2     1  UNL1        0.2299
     14 O           1.1720   -0.9028    1.3534 O.2     1  UNL1       -0.2744
     15 C          -0.1655   -0.2345   -0.9058 C.ar    1  UNL1       -0.0322
     16 C           0.3866    0.5146   -1.9280 C.ar    1  UNL1       -0.0576
     17 C           0.7177   -0.0894   -3.1266 C.ar    1  UNL1       -0.0615
     18 C           0.4862   -1.4403   -3.3069 C.ar    1  UNL1       -0.0617
     19 C          -0.0706   -2.1883   -2.2865 C.ar    1  UNL1       -0.0615
     20 C          -0.3965   -1.5855   -1.0860 C.ar    1  UNL1       -0.0576
     21 H           4.9115    2.9594    2.1654 H       1  UNL1        0.0281
     22 H           3.3049    3.4729    2.7340 H       1  UNL1        0.0281
     23 H           3.5582    1.8033    2.1714 H       1  UNL1        0.0281
     24 H           3.9208    2.5797   -0.1171 H       1  UNL1        0.0812
     25 H           3.8388    4.2779    0.4097 H       1  UNL1        0.0812
     26 H           2.1971    3.8149   -1.5733 H       1  UNL1        0.0812
     27 H           0.5394    3.8678   -0.9269 H       1  UNL1        0.0812
     28 H           1.3370    6.1557   -1.1612 H       1  UNL1        0.0281
     29 H           1.2632    5.7681    0.5745 H       1  UNL1        0.0281
     30 H           2.8297    5.7716   -0.2709 H       1  UNL1        0.0281
     31 H           1.9271    1.2596    1.1165 H       1  UNL1        0.0815
     32 H           1.8212    1.4607   -0.6490 H       1  UNL1        0.0815
     33 H          -0.4299    2.3987   -0.4506 H       1  UNL1        0.0330
     34 H          -0.3238    2.3592    1.3258 H       1  UNL1        0.0330
     35 H          -2.5066    1.0311   -0.1855 H       1  UNL1        0.0283
     36 H          -2.4146   -0.6073    0.5124 H       1  UNL1        0.0283
     37 H          -3.4447    0.9145    2.1458 H       1  UNL1        0.0359
     38 H          -2.0634    2.0304    2.0155 H       1  UNL1        0.0359
     39 H          -0.0153   -0.8908    3.4512 H       1  UNL1        0.1575
     40 H           0.5630    1.5710   -1.7888 H       1  UNL1        0.0621
     41 H           1.1531    0.4950   -3.9236 H       1  UNL1        0.0618
     42 H           0.7408   -1.9113   -4.2448 H       1  UNL1        0.0618
     43 H          -0.2515   -3.2437   -2.4274 H       1  UNL1        0.0618
     44 H          -0.8319   -2.1699   -0.2889 H       1  UNL1        0.0621
     45 N           1.9969    3.2585    0.4643 N.4     1  UNL1        0.2349
     46 H           1.5834    3.6653    1.3115 H       1  UNL1        0.2033
@<TRIPOS>UNITY_ATOM_ATTR
45 1
charge 1
@<TRIPOS>BOND
     1     1     2    1
     2     1    21    1
     3     1    22    1
     4     1    23    1
     5     2    24    1
     6     2    25    1
     7     2    45    1
     8     3     4    1
     9     3    26    1
    10     3    27    1
    11     3    45    1
    12     4    28    1
    13     4    29    1
    14     4    30    1
    15     5     6    1
    16     5    31    1
    17     5    32    1
    18     5    45    1
    19     6     7    1
    20     6    33    1
    21     6    34    1
    22     7    13    1
    23     7     8    1
    24     7    15    1
    25     8     9    1
    26     8    35    1
    27     8    36    1
    28     9    10    1
    29     9    37    1
    30     9    38    1
    31    10    11    2
    32    10    12   am
    33    12    13   am
    34    12    39    1
    35    13    14    2
    36    15    20   ar
    37    15    16   ar
    38    16    17   ar
    39    16    40    1
    40    17    18   ar
    41    17    41    1
    42    18    19   ar
    43    18    42    1
    44    19    20   ar
    45    19    43    1
    46    20    44    1
    47    45    46    1
