@<TRIPOS>MOLECULE
ZINC01872015
 32 34 0 0 0
SMALL
GASTEIGER

@<TRIPOS>ATOM
      1 C          -2.5824    0.0923   -1.2352 C.3     1  UNL1       -0.0532
      2 C          -2.5147    0.9663    0.0188 C.3     1  UNL1        0.0209
      3 H          -3.3583    1.6565    0.0266 H       1  UNL1        0.0406
      4 C          -1.2262    1.7478    0.0174 C.ar    1  UNL1       -0.0369
      5 C          -0.0126    1.0758    0.0080 C.ar    1  UNL1       -0.0544
      6 C           1.1756    1.7767    0.0004 C.ar    1  UNL1       -0.0169
      7 C           1.1604    3.1628    0.0080 C.ar    1  UNL1        0.1557
      8 C          -0.0657    3.8474    0.0233 C.ar    1  UNL1        0.1102
      9 C          -1.2610    3.1240    0.0305 C.ar    1  UNL1       -0.0288
     10 N           0.2279    5.1730    0.0281 N.ar    1  UNL1       -0.2089
     11 C           1.5289    5.3160    0.0167 C.ar    1  UNL1        0.2284
     12 O           2.1256    4.1090    0.0043 O.2     1  UNL1       -0.4353
     13 C           2.2390    6.6121    0.0174 C.ar    1  UNL1        0.0370
     14 C           1.5167    7.8067    0.0251 C.ar    1  UNL1       -0.0481
     15 C           2.1849    9.0132    0.0305 C.ar    1  UNL1       -0.0427
     16 C           3.5695    9.0412    0.0172 C.ar    1  UNL1        0.0410
     17 C           4.2914    7.8594    0.0047 C.ar    1  UNL1       -0.0427
     18 C           3.6344    6.6467    0.0045 C.ar    1  UNL1       -0.0481
     19 CL          4.4035   10.5637    0.0168 Cl      1  UNL1       -0.0835
     20 C          -2.5701    0.0913    1.2445 C.2     1  UNL1        0.0489
     21 O          -1.6570    0.1013    2.0357 O.co2   1  UNL1       -0.5492
     22 H          -3.5144   -0.4730   -1.2342 H       1  UNL1        0.0239
     23 H          -2.5423    0.7252   -2.1218 H       1  UNL1        0.0239
     24 H          -1.7388   -0.5979   -1.2431 H       1  UNL1        0.0239
     25 H           0.0021   -0.0041    0.0020 H       1  UNL1        0.0622
     26 H           2.1163    1.2462   -0.0111 H       1  UNL1        0.0655
     27 H          -2.2084    3.6423    0.0423 H       1  UNL1        0.0643
     28 H           0.4369    7.7862    0.0305 H       1  UNL1        0.0626
     29 H           1.6273    9.9381    0.0406 H       1  UNL1        0.0632
     30 H           5.3710    7.8874   -0.0053 H       1  UNL1        0.0632
     31 H           4.1984    5.7258   -0.0060 H       1  UNL1        0.0626
     32 O          -3.6339   -0.6992    1.4572 O.co2   1  UNL1       -0.5492
@<TRIPOS>UNITY_ATOM_ATTR
32 1
charge -1
@<TRIPOS>BOND
     1     1     2    1
     2     1    22    1
     3     1    23    1
     4     1    24    1
     5     2     3    1
     6     2     4    1
     7     2    20    1
     8     4     9   ar
     9     4     5   ar
    10     5     6   ar
    11     5    25    1
    12     6     7   ar
    13     6    26    1
    14     7    12   ar
    15     7     8   ar
    16     8     9   ar
    17     8    10   ar
    18     9    27    1
    19    10    11   ar
    20    11    12   ar
    21    11    13    1
    22    13    18   ar
    23    13    14   ar
    24    14    15   ar
    25    14    28    1
    26    15    16   ar
    27    15    29    1
    28    16    17   ar
    29    16    19    1
    30    17    18   ar
    31    17    30    1
    32    18    31    1
    33    20    21   ar
    34    20    32   ar
