@<TRIPOS>MOLECULE
ZINC11592718
 68 70 0 0 0
SMALL
GASTEIGER

@<TRIPOS>ATOM
      1 C          10.7030   -4.8109   -5.5546 C.3     1  UNL1       -0.0643
      2 C           9.3986   -4.3487   -4.9020 C.3     1  UNL1       -0.0406
      3 C           9.1944   -2.8565   -5.1716 C.3     1  UNL1        0.0619
      4 C           9.1227   -2.6161   -6.6809 C.3     1  UNL1       -0.0497
      5 C          10.3661   -2.0671   -4.5845 C.3     1  UNL1       -0.0497
      6 C           7.9096   -2.4012   -4.5289 C.2     1  UNL1        0.3130
      7 O           7.2274   -3.1893   -3.9178 O.2     1  UNL1       -0.2502
      8 O           7.5232   -1.1201   -4.6352 O.3     1  UNL1       -0.4603
      9 C           6.2749   -0.7525   -3.9910 C.3     1  UNL1        0.1106
     10 H           6.1357   -1.3767   -3.1083 H       1  UNL1        0.0740
     11 C           5.1226   -1.0010   -4.9621 C.3     1  UNL1       -0.0090
     12 C           5.3259   -0.1066   -6.1929 C.3     1  UNL1       -0.0218
     13 H           4.5250   -0.2797   -6.9116 H       1  UNL1        0.0342
     14 C           5.2963    1.3266   -5.7287 C.2     1  UNL1       -0.0775
     15 C           5.7223    1.6475   -4.5365 C.2     1  UNL1       -0.0444
     16 C           6.3499    0.6942   -3.5633 C.3     1  UNL1        0.0243
     17 H           7.4038    0.9586   -3.4777 H       1  UNL1        0.0388
     18 C           5.7070    0.9194   -2.1929 C.3     1  UNL1       -0.0247
     19 H           6.1204    0.2115   -1.4744 H       1  UNL1        0.0313
     20 C           6.0059    2.3480   -1.7356 C.3     1  UNL1       -0.0219
     21 H           7.0642    2.4277   -1.4869 H       1  UNL1        0.0343
     22 C           5.6779    3.3481   -2.8068 C.2     1  UNL1       -0.0806
     23 C           5.5517    3.0489   -4.0880 C.2     1  UNL1       -0.0621
     24 C           5.1770    2.6562   -0.4871 C.3     1  UNL1       -0.0587
     25 C           4.1936    0.7200   -2.2970 C.3     1  UNL1       -0.0457
     26 C           3.5857    1.8534   -3.1257 C.3     1  UNL1       -0.0153
     27 C           2.0605    1.7327   -3.1137 C.3     1  UNL1        0.1054
     28 H           1.7710    0.7405   -3.4598 H       1  UNL1        0.0734
     29 C           1.4548    2.7935   -4.0368 C.3     1  UNL1        0.0109
     30 C          -0.0733    2.7025   -3.9809 C.3     1  UNL1        0.0686
     31 H          -0.5080    3.4591   -4.6341 H       1  UNL1        0.0600
     32 C          -0.5345    2.9434   -2.5383 C.3     1  UNL1        0.0710
     33 C           0.2254    2.0014   -1.6306 C.2     1  UNL1        0.3098
     34 O          -0.3525    1.3244   -0.8135 O.2     1  UNL1       -0.2507
     35 O           1.5671    1.9387   -1.7601 O.3     1  UNL1       -0.4612
     36 O          -0.4909    1.4036   -4.4059 O.3     1  UNL1       -0.3911
     37 C           6.6780   -0.4142   -6.8396 C.3     1  UNL1       -0.0588
     38 H          11.5378   -4.2485   -5.1363 H       1  UNL1        0.0230
     39 H          10.8485   -5.8740   -5.3625 H       1  UNL1        0.0230
     40 H          10.6520   -4.6396   -6.6298 H       1  UNL1        0.0230
     41 H           9.4497   -4.5200   -3.8268 H       1  UNL1        0.0273
     42 H           8.5639   -4.9111   -5.3203 H       1  UNL1        0.0273
     43 H           8.9772   -1.5531   -6.8730 H       1  UNL1        0.0240
     44 H          10.0520   -2.9454   -7.1458 H       1  UNL1        0.0240
     45 H           8.2880   -3.1785   -7.0992 H       1  UNL1        0.0240
     46 H          10.4171   -2.2384   -3.5092 H       1  UNL1        0.0240
     47 H          11.2954   -2.3964   -5.0494 H       1  UNL1        0.0240
     48 H          10.2206   -1.0041   -4.7765 H       1  UNL1        0.0240
     49 H           5.1175   -2.0479   -5.2658 H       1  UNL1        0.0307
     50 H           4.1766   -0.7533   -4.4805 H       1  UNL1        0.0307
     51 H           4.9065    2.0902   -6.3855 H       1  UNL1        0.0578
     52 H           5.5355    4.3769   -2.5108 H       1  UNL1        0.0575
     53 H           5.3252    3.8237   -4.8055 H       1  UNL1        0.0617
     54 H           5.3563    1.8894    0.2665 H       1  UNL1        0.0235
     55 H           5.4655    3.6298   -0.0907 H       1  UNL1        0.0235
     56 H           4.1187    2.6692   -0.7477 H       1  UNL1        0.0235
     57 H           3.7569    0.7254   -1.2984 H       1  UNL1        0.0269
     58 H           3.9853   -0.2350   -2.7795 H       1  UNL1        0.0269
     59 H           3.9473    1.7875   -4.1519 H       1  UNL1        0.0301
     60 H           3.8776    2.8128   -2.6985 H       1  UNL1        0.0301
     61 H           1.7922    2.6217   -5.0589 H       1  UNL1        0.0326
     62 H           1.7723    3.7838   -3.7103 H       1  UNL1        0.0326
     63 H          -0.3264    3.9749   -2.2538 H       1  UNL1        0.0403
     64 H          -1.6040    2.7490   -2.4574 H       1  UNL1        0.0403
     65 H          -1.4489    1.2730   -4.3878 H       1  UNL1        0.2098
     66 H           6.7890   -1.4925   -6.9542 H       1  UNL1        0.0235
     67 H           6.7294    0.0624   -7.8185 H       1  UNL1        0.0235
     68 H           7.4788   -0.0318   -6.2068 H       1  UNL1        0.0235
@<TRIPOS>BOND
     1     1     2    1
     2     1    38    1
     3     1    39    1
     4     1    40    1
     5     2     3    1
     6     2    41    1
     7     2    42    1
     8     3     4    1
     9     3     5    1
    10     3     6    1
    11     4    43    1
    12     4    44    1
    13     4    45    1
    14     5    46    1
    15     5    47    1
    16     5    48    1
    17     6     7    2
    18     6     8    1
    19     8     9    1
    20     9    10    1
    21     9    16    1
    22     9    11    1
    23    11    12    1
    24    11    49    1
    25    11    50    1
    26    12    13    1
    27    12    14    1
    28    12    37    1
    29    14    15    2
    30    14    51    1
    31    15    23    1
    32    15    16    1
    33    16    17    1
    34    16    18    1
    35    18    19    1
    36    18    20    1
    37    18    25    1
    38    20    21    1
    39    20    22    1
    40    20    24    1
    41    22    23    2
    42    22    52    1
    43    23    53    1
    44    24    54    1
    45    24    55    1
    46    24    56    1
    47    25    26    1
    48    25    57    1
    49    25    58    1
    50    26    27    1
    51    26    59    1
    52    26    60    1
    53    27    28    1
    54    27    35    1
    55    27    29    1
    56    29    30    1
    57    29    61    1
    58    29    62    1
    59    30    31    1
    60    30    32    1
    61    30    36    1
    62    32    33    1
    63    32    63    1
    64    32    64    1
    65    33    34    2
    66    33    35    1
    67    36    65    1
    68    37    66    1
    69    37    67    1
    70    37    68    1
