@<TRIPOS>MOLECULE
ZINC00000303
 32 32 0 0 0
SMALL
GASTEIGER

@<TRIPOS>ATOM
      1 C           1.3413    3.0033    2.8768 C.3     1  UNL1       -0.0362
      2 C           1.3690    1.4950    2.6212 C.3     1  UNL1        0.0634
      3 C           2.2431    0.8148    3.6768 C.3     1  UNL1       -0.0362
      4 C          -0.0538    0.9380    2.7012 C.3     1  UNL1        0.0083
      5 C          -0.9625    1.7220    1.7523 C.3     1  UNL1        0.0907
      6 C          -0.3642    1.7066    0.3443 C.3     1  UNL1       -0.0318
      7 C          -2.3283    1.0857    1.7247 C.ar    1  UNL1       -0.0162
      8 C          -2.4607   -0.2753    1.9277 C.ar    1  UNL1       -0.0545
      9 C          -3.7137   -0.8586    1.9081 C.ar    1  UNL1       -0.0430
     10 C          -4.8344   -0.0818    1.6741 C.ar    1  UNL1        0.0410
     11 C          -4.7007    1.2794    1.4654 C.ar    1  UNL1       -0.0430
     12 C          -3.4478    1.8623    1.4908 C.ar    1  UNL1       -0.0545
     13 CL         -6.4078   -0.8147    1.6428 Cl      1  UNL1       -0.0835
     14 O          -1.0750    3.0719    2.2074 O.3     1  UNL1       -0.3841
     15 O           1.9073    1.2418    1.3219 O.3     1  UNL1       -0.3890
     16 H           0.7287    3.2120    3.7539 H       1  UNL1        0.0257
     17 H           2.3563    3.3613    3.0489 H       1  UNL1        0.0257
     18 H           0.9191    3.5110    2.0096 H       1  UNL1        0.0257
     19 H           2.2628   -0.2597    3.4947 H       1  UNL1        0.0257
     20 H           3.2567    1.2117    3.6197 H       1  UNL1        0.0257
     21 H           1.8325    1.0079    4.6678 H       1  UNL1        0.0257
     22 H          -0.4247    1.0340    3.7217 H       1  UNL1        0.0324
     23 H          -0.0490   -0.1134    2.4138 H       1  UNL1        0.0324
     24 H          -0.0687    0.6896    0.0861 H       1  UNL1        0.0261
     25 H           0.5095    2.3576    0.3136 H       1  UNL1        0.0261
     26 H          -1.1070    2.0615   -0.3701 H       1  UNL1        0.0261
     27 H          -1.5854   -0.8823    2.1061 H       1  UNL1        0.0622
     28 H          -3.8174   -1.9211    2.0711 H       1  UNL1        0.0632
     29 H          -5.5751    1.8862    1.2823 H       1  UNL1        0.0632
     30 H          -3.3433    2.9248    1.3276 H       1  UNL1        0.0622
     31 H          -1.4478    3.1578    3.0955 H       1  UNL1        0.2106
     32 H           1.9547    0.3038    1.0918 H       1  UNL1        0.2101
@<TRIPOS>BOND
     1     1     2    1
     2     1    16    1
     3     1    17    1
     4     1    18    1
     5     2     3    1
     6     2     4    1
     7     2    15    1
     8     3    19    1
     9     3    20    1
    10     3    21    1
    11     4     5    1
    12     4    22    1
    13     4    23    1
    14     5     6    1
    15     5     7    1
    16     5    14    1
    17     6    24    1
    18     6    25    1
    19     6    26    1
    20     7    12   ar
    21     7     8   ar
    22     8     9   ar
    23     8    27    1
    24     9    10   ar
    25     9    28    1
    26    10    11   ar
    27    10    13    1
    28    11    12   ar
    29    11    29    1
    30    12    30    1
    31    14    31    1
    32    15    32    1
