@<TRIPOS>MOLECULE
ZINC03831347
 62 65 0 0 0
SMALL
GASTEIGER

@<TRIPOS>ATOM
      1 C          -5.3149   -0.5867   -6.2665 C.3     1  UNL1       -0.0493
      2 C          -5.7864    0.8675   -6.2053 C.3     1  UNL1        0.0123
      3 N          -4.9661    1.6066   -5.2424 N.am    1  UNL1       -0.2925
      4 C          -5.3710    1.6727   -3.8379 C.3     1  UNL1        0.0314
      5 C          -4.1457    1.6013   -2.9252 C.3     1  UNL1        0.0401
      6 N          -3.1526    2.5976   -3.3278 N.am    1  UNL1       -0.2167
      7 C          -2.9465    2.8591   -4.6341 C.2     1  UNL1        0.3091
      8 O          -2.0491    3.5987   -4.9790 O.2     1  UNL1       -0.2645
      9 C          -3.8405    2.2246   -5.6527 C.2     1  UNL1        0.3022
     10 O          -3.5563    2.2661   -6.8318 O.2     1  UNL1       -0.2649
     11 C          -2.4383    3.2515   -2.3905 C.2     1  UNL1        0.3098
     12 O          -1.6775    4.1412   -2.7173 O.2     1  UNL1       -0.2522
     13 N          -2.5676    2.9188   -1.0909 N.am    1  UNL1       -0.2836
     14 CA         -1.7050    3.5441   -0.0853 C.3     1  UNL1        0.1261
     15 HA         -1.5070    4.5779   -0.3687 H       1  UNL1        0.0646
     16 C          -0.4038    2.7887    0.0000 C.ar    1  UNL1       -0.0184
     17 C          -0.3998    1.4083   -0.0741 C.ar    1  UNL1       -0.0563
     18 C           0.7932    0.7151    0.0100 C.ar    1  UNL1       -0.0614
     19 C           1.9833    1.4028    0.1572 C.ar    1  UNL1       -0.0617
     20 C           1.9799    2.7834    0.2256 C.ar    1  UNL1       -0.0614
     21 C           0.7863    3.4764    0.1467 C.ar    1  UNL1       -0.0563
     22 C          -2.3925    3.5135    1.2553 C.2     1  UNL1        0.2386
     23 O          -3.4945    3.0182    1.3606 O.2     1  UNL1       -0.2734
     24 N          -1.7827    4.0367    2.3375 N.am    1  UNL1       -0.2999
     25 CA         -2.4511    4.0069    3.6408 C.3     1  UNL1        0.1277
     26 HA         -3.1683    3.1911    3.7309 H       1  UNL1        0.0622
     27 C          -1.4865    4.1140    4.8308 C.3     1  UNL1        0.1003
     28 H          -1.5749    3.3501    5.6032 H       1  UNL1        0.0640
     29 N          -2.1078    5.4344    5.0992 N.am    1  UNL1       -0.2761
     30 C          -2.9981    5.3510    4.0743 C.2     1  UNL1        0.2401
     31 O          -3.8840    6.0719    3.6664 O.2     1  UNL1       -0.2734
     32 CA         -1.1789    6.5639    5.1343 C.3     1  UNL1        0.0807
     33 HA         -0.7300    6.6320    6.1253 H       1  UNL1        0.0576
     34 C          -0.0567    6.3661    4.0712 C.3     1  UNL1        0.0366
     35 S           0.2319    4.5350    4.3188 S.3     1  UNL1       -0.1275
     36 C          -0.5588    6.6688    2.6579 C.3     1  UNL1       -0.0486
     37 C           1.1905    7.1859    4.4081 C.3     1  UNL1       -0.0486
     38 C          -1.9289    7.8371    4.8385 C.2     1  UNL1        0.0635
     39 O          -3.1371    7.8374    4.8251 O.co2   1  UNL1       -0.5478
     40 H          -5.4125   -1.0421   -5.2810 H       1  UNL1        0.0245
     41 H          -5.9252   -1.1367   -6.9829 H       1  UNL1        0.0245
     42 H          -4.2712   -0.6175   -6.5792 H       1  UNL1        0.0245
     43 H          -6.8301    0.8983   -5.8926 H       1  UNL1        0.0462
     44 H          -5.6888    1.3229   -7.1908 H       1  UNL1        0.0462
     45 H          -5.9018    2.6080   -3.6602 H       1  UNL1        0.0480
     46 H          -6.0326    0.8357   -3.6147 H       1  UNL1        0.0480
     47 H          -3.7035    0.6070   -2.9881 H       1  UNL1        0.0485
     48 H          -4.4517    1.7937   -1.8969 H       1  UNL1        0.0485
     49 H          -3.2319    2.2654   -0.8213 H       1  UNL1        0.1513
     50 H          -1.3292    0.8713   -0.1935 H       1  UNL1        0.0621
     51 H           0.7959   -0.3636   -0.0437 H       1  UNL1        0.0618
     52 H           2.9158    0.8614    0.2184 H       1  UNL1        0.0618
     53 H           2.9097    3.3207    0.3402 H       1  UNL1        0.0618
     54 H           0.7836    4.5551    0.2001 H       1  UNL1        0.0621
     55 H          -0.9013    4.4328    2.2533 H       1  UNL1        0.1496
     56 H          -0.7639    7.7354    2.5659 H       1  UNL1        0.0244
     57 H           0.2023    6.3813    1.9326 H       1  UNL1        0.0244
     58 H          -1.4725    6.1055    2.4685 H       1  UNL1        0.0244
     59 H           1.5779    6.8756    5.3786 H       1  UNL1        0.0244
     60 H           1.9504    7.0218    3.6442 H       1  UNL1        0.0244
     61 H           0.9316    8.2441    4.4418 H       1  UNL1        0.0244
     62 OXT        -1.2547    8.9708    4.5899 O.co2   1  UNL1       -0.5478
@<TRIPOS>UNITY_ATOM_ATTR
62 1
charge -1
@<TRIPOS>BOND
     1     1     2    1
     2     1    40    1
     3     1    41    1
     4     1    42    1
     5     2     3    1
     6     2    43    1
     7     2    44    1
     8     3     9   am
     9     3     4    1
    10     4     5    1
    11     4    45    1
    12     4    46    1
    13     5     6    1
    14     5    47    1
    15     5    48    1
    16     6     7   am
    17     6    11   am
    18     7     8    2
    19     7     9    1
    20     9    10    2
    21    11    12    2
    22    11    13   am
    23    13    14    1
    24    13    49    1
    25    14    15    1
    26    14    16    1
    27    14    22    1
    28    16    21   ar
    29    16    17   ar
    30    17    18   ar
    31    17    50    1
    32    18    19   ar
    33    18    51    1
    34    19    20   ar
    35    19    52    1
    36    20    21   ar
    37    20    53    1
    38    21    54    1
    39    22    23    2
    40    22    24   am
    41    24    25    1
    42    24    55    1
    43    25    26    1
    44    25    30    1
    45    25    27    1
    46    27    28    1
    47    27    35    1
    48    27    29    1
    49    29    30   am
    50    29    32    1
    51    30    31    2
    52    32    33    1
    53    32    34    1
    54    32    38    1
    55    34    35    1
    56    34    36    1
    57    34    37    1
    58    36    56    1
    59    36    57    1
    60    36    58    1
    61    37    59    1
    62    37    60    1
    63    37    61    1
    64    38    39   ar
    65    38    62   ar
