@<TRIPOS>MOLECULE
ZINC03830252
 29 30 0 0 0
SMALL
GASTEIGER

@<TRIPOS>ATOM
      1 C           1.1039    2.0151    0.0023 C.ar    1  UNL1        0.1057
      2 N          -0.0161    1.3364    0.0094 N.ar    1  UNL1       -0.2047
      3 C           0.0021   -0.0041    0.0020 C.ar    1  UNL1        0.2184
      4 N           1.1542   -0.6597   -0.0125 N.ar    1  UNL1       -0.1594
      5 C           2.3068    0.0158   -0.0199 C.ar    1  UNL1        0.3545
      6 O           3.3688   -0.5830   -0.0336 O.2     1  UNL1       -0.2443
      7 N           2.2879    1.3647   -0.0125 N.ar    1  UNL1       -0.2535
      8 C1*         3.5435    2.1194   -0.0209 C.3     1  UNL1        0.1693
      9 H1*         3.6060    2.7679    0.8530 H       1  UNL1        0.0867
     10 C2*         3.6763    2.9434   -1.3270 C.3     1  UNL1        0.1286
     11 H2*         3.2786    2.3903   -2.1779 H       1  UNL1        0.0665
     12 C3*         5.2101    3.1150   -1.4476 C.3     1  UNL1        0.1135
     13 H3*         5.5190    4.0861   -1.0607 H       1  UNL1        0.0647
     14 C4*         5.7867    1.9801   -0.5791 C.3     1  UNL1        0.1126
     15 H4*         6.3579    2.4005    0.2486 H       1  UNL1        0.0647
     16 O4*         4.6748    1.2237   -0.0712 O.3     1  UNL1       -0.3456
     17 C5*         6.6860    1.0778   -1.4264 C.3     1  UNL1        0.0730
     18 O5*         7.2941    0.0912   -0.5905 O.3     1  UNL1       -0.3924
     19 O3*         5.6249    2.9646   -2.8068 O.3     1  UNL1       -0.3864
     20 O2*         3.0299    4.2113   -1.1980 O.3     1  UNL1       -0.3847
     21 N          -1.1797   -0.7021    0.0100 N.pl3   1  UNL1       -0.3273
     22 H           1.0810    3.0949    0.0080 H       1  UNL1        0.1032
     23 H5*1        6.0878    0.5857   -2.1933 H       1  UNL1        0.0584
     24 H5*2        7.4610    1.6798   -1.9008 H       1  UNL1        0.0584
     25 H5*         7.8793   -0.5173   -1.0620 H       1  UNL1        0.2095
     26 H3*         6.5828    3.0050   -2.9325 H       1  UNL1        0.2100
     27 H2*         3.0856    4.7635   -1.9898 H       1  UNL1        0.2101
     28 H          -2.0245   -0.2255    0.0210 H       1  UNL1        0.1452
     29 H          -1.1701   -1.6721    0.0047 H       1  UNL1        0.1452
@<TRIPOS>BOND
     1     1     7   ar
     2     1     2   ar
     3     1    22    1
     4     2     3   ar
     5     3     4   ar
     6     3    21    1
     7     4     5   ar
     8     5     6    2
     9     5     7   ar
    10     7     8    1
    11     8     9    1
    12     8    16    1
    13     8    10    1
    14    10    11    1
    15    10    12    1
    16    10    20    1
    17    12    13    1
    18    12    14    1
    19    12    19    1
    20    14    15    1
    21    14    16    1
    22    14    17    1
    23    17    18    1
    24    17    23    1
    25    17    24    1
    26    18    25    1
    27    19    26    1
    28    20    27    1
    29    21    28    1
    30    21    29    1
