@<TRIPOS>MOLECULE
ZINC03831031
 31 31 0 0 0
SMALL
GASTEIGER

@<TRIPOS>ATOM
      1 C          -0.0127    1.0858    0.0080 C.3     1  UNL1       -0.0623
      2 C          -0.7288    1.5792    1.2668 C.3     1  UNL1       -0.0415
      3 H          -0.6662    2.6662    1.3180 H       1  UNL1        0.0299
      4 C          -0.0638    0.9713    2.5033 C.3     1  UNL1       -0.0500
      5 C          -0.1516   -0.5545    2.4315 C.3     1  UNL1       -0.0474
      6 C          -1.6208   -0.9789    2.3820 C.3     1  UNL1       -0.0126
      7 H          -2.1309   -0.6274    3.2788 H       1  UNL1        0.0328
      8 C          -2.2858   -0.3710    1.1455 C.3     1  UNL1        0.0585
      9 H          -3.3325   -0.6734    1.1102 H       1  UNL1        0.0596
     10 C          -2.1980    1.1548    1.2173 C.3     1  UNL1       -0.0240
     11 O          -1.6170   -0.8319   -0.0302 O.3     1  UNL1       -0.3915
     12 C          -1.7086   -2.5047    2.3102 C.3     1  UNL1       -0.0415
     13 C          -1.0436   -3.1126    3.5467 C.3     1  UNL1       -0.0623
     14 C          -3.1778   -2.9292    2.2607 C.3     1  UNL1       -0.0623
     15 H           0.0999    0.0027    0.0550 H       1  UNL1        0.0232
     16 H           0.9710    1.5510   -0.0563 H       1  UNL1        0.0232
     17 H          -0.5988    1.3523   -0.8715 H       1  UNL1        0.0232
     18 H           0.9829    1.2737    2.5386 H       1  UNL1        0.0268
     19 H          -0.5739    1.3228    3.4001 H       1  UNL1        0.0268
     20 H           0.3585   -0.9060    1.5347 H       1  UNL1        0.0269
     21 H           0.3222   -0.9875    3.3125 H       1  UNL1        0.0269
     22 H          -2.7081    1.5063    2.1141 H       1  UNL1        0.0293
     23 H          -2.6718    1.5879    0.3364 H       1  UNL1        0.0293
     24 H          -1.9864   -0.4857   -0.8541 H       1  UNL1        0.2098
     25 H          -1.1985   -2.8562    1.4134 H       1  UNL1        0.0299
     26 H          -1.5537   -2.7611    4.4435 H       1  UNL1        0.0232
     27 H          -1.1062   -4.1996    3.4956 H       1  UNL1        0.0232
     28 H           0.0031   -2.8102    3.5820 H       1  UNL1        0.0232
     29 H          -3.6516   -2.4961    1.3797 H       1  UNL1        0.0232
     30 H          -3.2404   -4.0162    2.2095 H       1  UNL1        0.0232
     31 H          -3.6879   -2.5776    3.1575 H       1  UNL1        0.0232
@<TRIPOS>BOND
     1     1     2    1
     2     1    15    1
     3     1    16    1
     4     1    17    1
     5     2     3    1
     6     2    10    1
     7     2     4    1
     8     4     5    1
     9     4    18    1
    10     4    19    1
    11     5     6    1
    12     5    20    1
    13     5    21    1
    14     6     7    1
    15     6     8    1
    16     6    12    1
    17     8     9    1
    18     8    10    1
    19     8    11    1
    20    10    22    1
    21    10    23    1
    22    11    24    1
    23    12    13    1
    24    12    14    1
    25    12    25    1
    26    13    26    1
    27    13    27    1
    28    13    28    1
    29    14    29    1
    30    14    30    1
    31    14    31    1
