@<TRIPOS>MOLECULE
ZINC03831551
 18 17 0 0 0
SMALL
GASTEIGER

@<TRIPOS>ATOM
      1 C          -1.7201    2.3108   -1.4143 C.3     1  UNL1       -0.0451
      2 C          -1.3296    1.9443    0.0189 C.3     1  UNL1        0.0756
      3 H          -1.2329    2.8531    0.6129 H       1  UNL1        0.0502
      4 C          -0.0144    1.2086    0.0087 C.2     1  UNL1        0.2258
      5 O           0.0021   -0.0041    0.0020 O.2     1  UNL1       -0.2746
      6 N           1.1435    1.8983    0.0013 N.am    1  UNL1       -0.3092
      7 C           2.4220    1.1832   -0.0147 C.3     1  UNL1        0.0512
      8 C           3.5540    2.1779   -0.0202 C.2     1  UNL1        0.0588
      9 O           3.3172    3.3627   -0.0116 O.co2   1  UNL1       -0.5482
     10 S          -2.6106    0.8828    0.7420 S.3     1  UNL1       -0.1658
     11 H          -2.6713    2.8429   -1.4069 H       1  UNL1        0.0245
     12 H          -0.9504    2.9486   -1.8488 H       1  UNL1        0.0245
     13 H          -1.8168    1.4020   -2.0082 H       1  UNL1        0.0245
     14 H           1.1304    2.8682    0.0067 H       1  UNL1        0.1491
     15 H           2.4967    0.5526    0.8712 H       1  UNL1        0.0523
     16 H           2.4797    0.5621   -0.9086 H       1  UNL1        0.0523
     17 H          -3.7225    1.6381    0.6972 H       1  UNL1        0.1024
     18 O           4.8254    1.7478   -0.0346 O.co2   1  UNL1       -0.5482
@<TRIPOS>UNITY_ATOM_ATTR
18 1
charge -1
@<TRIPOS>BOND
     1     1     2    1
     2     1    11    1
     3     1    12    1
     4     1    13    1
     5     2     3    1
     6     2     4    1
     7     2    10    1
     8     4     5    2
     9     4     6   am
    10     6     7    1
    11     6    14    1
    12     7     8    1
    13     7    15    1
    14     7    16    1
    15     8     9   ar
    16     8    18   ar
    17    10    17    1
