@<TRIPOS>MOLECULE
ZINC02598638
 62 64 0 0 0
SMALL
GASTEIGER

@<TRIPOS>ATOM
      1 C          -0.7046   -8.1550  -13.8736 C.3     1  UNL1       -0.0306
      2 C          -0.7245   -7.8379  -12.3769 C.3     1  UNL1        0.0899
      3 O          -1.1508   -6.4641  -12.1788 O.3     1  UNL1       -0.4610
      4 C          -1.2221   -6.0248  -10.9125 C.2     1  UNL1        0.3560
      5 O          -0.9377   -6.7636   -9.9998 O.2     1  UNL1       -0.2444
      6 C          -1.6569   -4.6100  -10.6291 C.3     1  UNL1        0.0770
      7 H          -0.9689   -3.9151  -11.1106 H       1  UNL1        0.0969
      8 C          -3.0688   -4.3910  -11.1763 C.3     1  UNL1        0.0048
      9 C          -3.4620   -2.9229  -11.0005 C.3     1  UNL1       -0.0220
     10 C          -4.8527   -2.7073  -11.5395 C.ar    1  UNL1       -0.0471
     11 C          -5.0336   -2.3515  -12.8629 C.ar    1  UNL1       -0.0586
     12 C          -6.3095   -2.1580  -13.3584 C.ar    1  UNL1       -0.0615
     13 C          -7.4041   -2.3114  -12.5282 C.ar    1  UNL1       -0.0617
     14 C          -7.2229   -2.6621  -11.2034 C.ar    1  UNL1       -0.0615
     15 C          -5.9472   -2.8598  -10.7090 C.ar    1  UNL1       -0.0586
     16 CA         -0.3139   -3.9929   -8.7113 C.3     1  UNL1        0.0531
     17 HA          0.4403   -4.5232   -9.2927 H       1  UNL1        0.0947
     18 CB         -0.1261   -2.4847   -8.8874 C.3     1  UNL1       -0.0129
     19 C          -0.1684   -4.3505   -7.2546 C.2     1  UNL1        0.2643
     20 O          -1.0891   -4.8742   -6.6639 O.2     1  UNL1       -0.2694
     21 N           0.9848   -4.0884   -6.6082 N.am    1  UNL1       -0.2840
     22 C           2.1601   -3.5774   -7.3218 C.3     1  UNL1        0.0408
     23 C           3.3929   -4.3097   -6.8677 C.ar    1  UNL1       -0.0268
     24 C           4.5621   -4.1219   -7.5926 C.ar    1  UNL1       -0.0568
     25 C           5.7298   -4.7511   -7.2134 C.ar    1  UNL1       -0.0614
     26 C           5.7350   -5.5753   -6.1033 C.ar    1  UNL1       -0.0615
     27 C           4.5729   -5.7670   -5.3859 C.ar    1  UNL1       -0.0582
     28 C           3.3942   -5.1375   -5.7678 C.ar    1  UNL1       -0.0406
     29 C           2.1621   -5.4030   -4.9434 C.3     1  UNL1       -0.0034
     30 CA          1.1174   -4.3091   -5.1586 C.3     1  UNL1        0.0699
     31 HA          1.4412   -3.3883   -4.6735 H       1  UNL1        0.0565
     32 C          -0.2059   -4.7483   -4.5867 C.2     1  UNL1        0.0625
     33 O          -0.8643   -3.9791   -3.9274 O.co2   1  UNL1       -0.5479
     34 H          -0.3845   -9.1862  -14.0223 H       1  UNL1        0.0262
     35 H          -1.7045   -8.0217  -14.2865 H       1  UNL1        0.0262
     36 H          -0.0106   -7.4828  -14.3782 H       1  UNL1        0.0262
     37 H           0.2754   -7.9712  -11.9640 H       1  UNL1        0.0694
     38 H          -1.4185   -8.5101  -11.8723 H       1  UNL1        0.0694
     39 H          -3.7712   -5.0229  -10.6327 H       1  UNL1        0.0329
     40 H          -3.0922   -4.6491  -12.2351 H       1  UNL1        0.0329
     41 H          -3.4386   -2.6648   -9.9417 H       1  UNL1        0.0315
     42 H          -2.7597   -2.2911  -11.5441 H       1  UNL1        0.0315
     43 H          -4.1783   -2.2280  -13.5107 H       1  UNL1        0.0620
     44 H          -6.4511   -1.8844  -14.3936 H       1  UNL1        0.0618
     45 H          -8.4008   -2.1576  -12.9146 H       1  UNL1        0.0618
     46 H          -8.0780   -2.7819  -10.5547 H       1  UNL1        0.0618
     47 H          -5.8057   -3.1338   -9.6739 H       1  UNL1        0.0620
     48 HB1        -0.8802   -1.9543   -8.3060 H       1  UNL1        0.0289
     49 HB2         0.8671   -2.1993   -8.5406 H       1  UNL1        0.0289
     50 HB3        -0.2313   -2.2260   -9.9410 H       1  UNL1        0.0289
     51 H           2.0260   -3.7242   -8.3935 H       1  UNL1        0.0514
     52 H           2.2767   -2.5138   -7.1138 H       1  UNL1        0.0514
     53 H           4.5573   -3.4786   -8.4601 H       1  UNL1        0.0621
     54 H           6.6361   -4.6002   -7.7811 H       1  UNL1        0.0618
     55 H           6.6468   -6.0674   -5.7986 H       1  UNL1        0.0618
     56 H           4.5789   -6.4121   -4.5197 H       1  UNL1        0.0620
     57 H           2.4362   -5.4344   -3.8889 H       1  UNL1        0.0335
     58 H           1.7387   -6.3649   -5.2325 H       1  UNL1        0.0335
     59 N          -1.6610   -4.3785   -9.1724 N.4     1  UNL1        0.2457
     60 H1         -1.9493   -5.2397   -8.6934 H       1  UNL1        0.2030
     61 H2         -2.3231   -3.6256   -8.9509 H       1  UNL1        0.2030
     62 OXT        -0.6531   -5.9941   -4.8097 O.co2   1  UNL1       -0.5479
@<TRIPOS>UNITY_ATOM_ATTR
59 1
charge 1
62 1
charge -1
@<TRIPOS>BOND
     1     1     2    1
     2     1    34    1
     3     1    35    1
     4     1    36    1
     5     2     3    1
     6     2    37    1
     7     2    38    1
     8     3     4    1
     9     4     5    2
    10     4     6    1
    11     6     7    1
    12     6     8    1
    13     6    59    1
    14     8     9    1
    15     8    39    1
    16     8    40    1
    17     9    10    1
    18     9    41    1
    19     9    42    1
    20    10    15   ar
    21    10    11   ar
    22    11    12   ar
    23    11    43    1
    24    12    13   ar
    25    12    44    1
    26    13    14   ar
    27    13    45    1
    28    14    15   ar
    29    14    46    1
    30    15    47    1
    31    16    17    1
    32    16    18    1
    33    16    19    1
    34    16    59    1
    35    18    48    1
    36    18    49    1
    37    18    50    1
    38    19    20    2
    39    19    21   am
    40    21    30    1
    41    21    22    1
    42    22    23    1
    43    22    51    1
    44    22    52    1
    45    23    28   ar
    46    23    24   ar
    47    24    25   ar
    48    24    53    1
    49    25    26   ar
    50    25    54    1
    51    26    27   ar
    52    26    55    1
    53    27    28   ar
    54    27    56    1
    55    28    29    1
    56    29    30    1
    57    29    57    1
    58    29    58    1
    59    30    31    1
    60    30    32    1
    61    32    33   ar
    62    32    62   ar
    63    59    60    1
    64    59    61    1
