@<TRIPOS>MOLECULE
ZINC03814382
 67 71 0 0 0
SMALL
GASTEIGER

@<TRIPOS>ATOM
      1 C          -3.9266    4.9070    0.4656 C.3     1  UNL1       -0.0025
      2 C          -3.0447    3.7547    0.2180 C.1     1  UNL1       -0.1027
      3 C          -2.3414    2.8357    0.0206 C.1     1  UNL1       -0.0673
      4 C          -1.4595    1.6834   -0.2270 C.3     1  UNL1        0.1320
      5 C          -1.0022    1.6669   -1.7057 C.3     1  UNL1       -0.0118
      6 C           0.5749    1.7048   -1.6926 C.3     1  UNL1       -0.0455
      7 C           0.8928    1.1375   -0.3026 C.3     1  UNL1       -0.0254
      8 H           0.7732    0.0541   -0.2950 H       1  UNL1        0.0313
      9 C          -0.1785    1.8122    0.5942 C.3     1  UNL1        0.0122
     10 C          -0.1920    1.0680    1.9178 C.3     1  UNL1       -0.0332
     11 C           1.1459    1.3575    2.6161 C.3     1  UNL1        0.0066
     12 H           1.2323    0.7270    3.5011 H       1  UNL1        0.0394
     13 C           2.3101    1.0755    1.6872 C.2     1  UNL1       -0.0553
     14 C           3.3681    0.4494    2.1991 C.2     1  UNL1       -0.0436
     15 C           3.3740    0.0089    3.6451 C.3     1  UNL1       -0.0204
     16 C           3.9930   -1.3895    3.7291 C.3     1  UNL1        0.0139
     17 C           5.3094   -1.4123    3.0000 C.2     1  UNL1        0.1567
     18 O           6.2224   -2.0824    3.4391 O.2     1  UNL1       -0.2927
     19 C           5.5020   -0.6726    1.8205 C.2     1  UNL1       -0.0158
     20 C           4.5616    0.1978    1.3919 C.2     1  UNL1       -0.0409
     21 C           4.7048    0.9412    0.0874 C.3     1  UNL1       -0.0268
     22 C           3.3478    0.9167   -0.6149 C.3     1  UNL1       -0.0422
     23 C           2.2575    1.5272    0.2494 C.3     1  UNL1       -0.0150
     24 H           2.3520    2.6128    0.2249 H       1  UNL1        0.0349
     25 C           1.1835    2.8051    3.0331 C.ar    1  UNL1       -0.0401
     26 C           2.3368    3.5459    2.8502 C.ar    1  UNL1       -0.0563
     27 C           2.3729    4.8744    3.2259 C.ar    1  UNL1       -0.0404
     28 C           1.2527    5.4632    3.7987 C.ar    1  UNL1        0.0292
     29 C           0.0977    4.7146    3.9862 C.ar    1  UNL1       -0.0404
     30 C           0.0666    3.3882    3.6030 C.ar    1  UNL1       -0.0563
     31 N           1.2877    6.8048    4.1856 N.pl3   1  UNL1       -0.3360
     32 C           0.1055    7.4240    4.7899 C.3     1  UNL1        0.0004
     33 C           2.5067    7.5928    3.9870 C.3     1  UNL1        0.0004
     34 C           0.1723    3.2862    0.8070 C.3     1  UNL1       -0.0557
     35 O          -2.1335    0.4654    0.0958 O.3     1  UNL1       -0.3760
     36 H          -4.8360    4.8023   -0.1261 H       1  UNL1        0.0362
     37 H          -4.1843    4.9465    1.5240 H       1  UNL1        0.0362
     38 H          -3.4125    5.8255    0.1823 H       1  UNL1        0.0362
     39 H          -1.3460    0.7547   -2.1934 H       1  UNL1        0.0303
     40 H          -1.3933    2.5400   -2.2280 H       1  UNL1        0.0303
     41 H           0.9362    2.7292   -1.7825 H       1  UNL1        0.0269
     42 H           1.0018    1.0746   -2.4728 H       1  UNL1        0.0269
     43 H          -0.2940   -0.0027    1.7405 H       1  UNL1        0.0281
     44 H          -1.0172    1.4232    2.5350 H       1  UNL1        0.0281
     45 H           3.9654    0.7068    4.2377 H       1  UNL1        0.0317
     46 H           2.3521   -0.0176    4.0235 H       1  UNL1        0.0317
     47 H           4.1434   -1.6304    4.6879 H       1  UNL1        0.0348
     48 H           3.3163   -2.1128    3.2742 H       1  UNL1        0.0348
     49 H           6.4106   -0.8015    1.2509 H       1  UNL1        0.0655
     50 H           5.4524    0.4514   -0.5366 H       1  UNL1        0.0313
     51 H           5.0025    1.9720    0.2797 H       1  UNL1        0.0313
     52 H           3.0842   -0.1160   -0.8431 H       1  UNL1        0.0274
     53 H           3.4193    1.4782   -1.5464 H       1  UNL1        0.0274
     54 H           3.2089    3.0862    2.4092 H       1  UNL1        0.0621
     55 H           3.2725    5.4536    3.0788 H       1  UNL1        0.0636
     56 H          -0.7749    5.1692    4.4315 H       1  UNL1        0.0636
     57 H          -0.8310    2.8055    3.7488 H       1  UNL1        0.0621
     58 H           0.1436    7.3001    5.8722 H       1  UNL1        0.0428
     59 H           0.0871    8.4863    4.5463 H       1  UNL1        0.0428
     60 H          -0.7937    6.9464    4.4009 H       1  UNL1        0.0428
     61 H           2.4777    8.0658    3.0054 H       1  UNL1        0.0428
     62 H           2.5729    8.3603    4.7583 H       1  UNL1        0.0428
     63 H           3.3764    6.9388    4.0497 H       1  UNL1        0.0428
     64 H           0.0251    3.8329   -0.1244 H       1  UNL1        0.0236
     65 H          -0.4721    3.7051    1.5799 H       1  UNL1        0.0236
     66 H           1.2138    3.3707    1.1172 H       1  UNL1        0.0236
     67 H          -2.9551    0.3284   -0.3953 H       1  UNL1        0.2114
@<TRIPOS>BOND
     1     1     2    1
     2     1    36    1
     3     1    37    1
     4     1    38    1
     5     2     3    3
     6     3     4    1
     7     4     9    1
     8     4     5    1
     9     4    35    1
    10     5     6    1
    11     5    39    1
    12     5    40    1
    13     6     7    1
    14     6    41    1
    15     6    42    1
    16     7     8    1
    17     7    23    1
    18     7     9    1
    19     9    10    1
    20     9    34    1
    21    10    11    1
    22    10    43    1
    23    10    44    1
    24    11    12    1
    25    11    13    1
    26    11    25    1
    27    13    23    1
    28    13    14    2
    29    14    20    1
    30    14    15    1
    31    15    16    1
    32    15    45    1
    33    15    46    1
    34    16    17    1
    35    16    47    1
    36    16    48    1
    37    17    18    2
    38    17    19    1
    39    19    20    2
    40    19    49    1
    41    20    21    1
    42    21    22    1
    43    21    50    1
    44    21    51    1
    45    22    23    1
    46    22    52    1
    47    22    53    1
    48    23    24    1
    49    25    30   ar
    50    25    26   ar
    51    26    27   ar
    52    26    54    1
    53    27    28   ar
    54    27    55    1
    55    28    29   ar
    56    28    31    1
    57    29    30   ar
    58    29    56    1
    59    30    57    1
    60    31    32    1
    61    31    33    1
    62    32    58    1
    63    32    59    1
    64    32    60    1
    65    33    61    1
    66    33    62    1
    67    33    63    1
    68    34    64    1
    69    34    65    1
    70    34    66    1
    71    35    67    1
