@<TRIPOS>MOLECULE
ZINC00157545
 25 25 0 0 0
SMALL
GASTEIGER

@<TRIPOS>ATOM
      1 C          -0.0218    0.0093   -2.4963 C.3     1  UNL1       -0.0190
      2 C           0.7182   -0.4975   -1.2568 C.3     1  UNL1        0.0035
      3 H           1.7408   -0.1202   -1.2645 H       1  UNL1        0.0876
      4 C           0.0021   -0.0041    0.0020 C.3     1  UNL1        0.1222
      5 H          -1.0205   -0.3814    0.0098 H       1  UNL1        0.0701
      6 C           0.7309   -0.5033    1.2229 C.ar    1  UNL1       -0.0138
      7 C           1.8136    0.1998    1.7172 C.ar    1  UNL1       -0.0559
      8 C           2.4795   -0.2557    2.8397 C.ar    1  UNL1       -0.0614
      9 C           2.0686   -1.4196    3.4622 C.ar    1  UNL1       -0.0617
     10 C           0.9889   -2.1253    2.9651 C.ar    1  UNL1       -0.0614
     11 C           0.3203   -1.6674    1.8452 C.ar    1  UNL1       -0.0559
     12 O          -0.0173    1.4248    0.0099 O.3     1  UNL1       -0.3816
     13 H          -0.0366    1.0992   -2.4903 H       1  UNL1        0.0285
     14 H           0.4884   -0.3422   -3.3931 H       1  UNL1        0.0285
     15 H          -1.0444   -0.3679   -2.4886 H       1  UNL1        0.0285
     16 H           2.1372    1.1069    1.2284 H       1  UNL1        0.0621
     17 H           3.3228    0.2958    3.2283 H       1  UNL1        0.0618
     18 H           2.5909   -1.7773    4.3372 H       1  UNL1        0.0618
     19 H           0.6679   -3.0345    3.4515 H       1  UNL1        0.0618
     20 H          -0.5230   -2.2189    1.4566 H       1  UNL1        0.0621
     21 H           0.8606    1.8301    0.0037 H       1  UNL1        0.2105
     22 H          -0.1988   -2.3407   -1.2579 H       1  UNL1        0.1998
     23 H           1.2616   -2.3165   -2.0532 H       1  UNL1        0.1998
     24 N           0.7501   -1.9706   -1.2430 N.4     1  UNL1        0.2226
     25 H           1.2209   -2.2900   -0.3882 H       1  UNL1        0.1998
@<TRIPOS>UNITY_ATOM_ATTR
24 1
charge 1
@<TRIPOS>BOND
     1     1     2    1
     2     1    13    1
     3     1    14    1
     4     1    15    1
     5     2     3    1
     6     2     4    1
     7     2    24    1
     8     4     5    1
     9     4     6    1
    10     4    12    1
    11     6    11   ar
    12     6     7   ar
    13     7     8   ar
    14     7    16    1
    15     8     9   ar
    16     8    17    1
    17     9    10   ar
    18     9    18    1
    19    10    11   ar
    20    10    19    1
    21    11    20    1
    22    12    21    1
    23    22    24    1
    24    23    24    1
    25    24    25    1
