@<TRIPOS>MOLECULE
ZINC03831105
 93 96 0 0 0
SMALL
GASTEIGER

@<TRIPOS>ATOM
      1 C          -0.6441    1.5921    0.6783 C.3     1  UNL1       -0.0587
      2 C          -0.5414    0.0776    0.4980 C.3     1  UNL1       -0.0212
      3 H          -1.5551   -0.3329    0.4468 H       1  UNL1        0.0343
      4 C           0.1876   -0.2231   -0.8127 C.3     1  UNL1       -0.0432
      5 C           0.3821   -1.7312   -1.0209 C.3     1  UNL1       -0.0308
      6 H          -0.5808   -2.2108   -1.1541 H       1  UNL1        0.0308
      7 C           1.2058   -1.8806   -2.3079 C.3     1  UNL1       -0.0292
      8 H           2.0495   -1.1722   -2.3033 H       1  UNL1        0.0310
      9 C           0.2388   -1.5892   -3.4895 C.3     1  UNL1       -0.0463
     10 C          -0.4449   -2.9508   -3.7385 C.3     1  UNL1       -0.0161
     11 C           0.6427   -4.0059   -3.4346 C.3     1  UNL1        0.1326
     12 C           1.6905   -3.3089   -2.5691 C.3     1  UNL1        0.0092
     13 C           2.1665   -4.0503   -1.3535 C.3     1  UNL1       -0.0178
     14 C           1.3859   -3.8196   -0.0694 C.3     1  UNL1        0.0600
     15 H           2.0134   -4.1893    0.7669 H       1  UNL1        0.0596
     16 C           1.1352   -2.3352    0.1551 C.3     1  UNL1        0.0007
     17 H           2.1247   -1.8315    0.2030 H       1  UNL1        0.0340
     18 C           0.4292   -2.0720    1.4813 C.3     1  UNL1        0.0133
     19 C           0.2266   -0.5797    1.6264 C.2     1  UNL1       -0.0531
     20 C           0.6797    0.1015    2.6604 C.2     1  UNL1       -0.0146
     21 C           1.4278   -0.5688    3.7421 C.2     1  UNL1        0.1787
     22 O           1.8503    0.0711    4.6866 O.2     1  UNL1       -0.2879
     23 C           1.6491   -2.0196    3.6509 C.2     1  UNL1       -0.0180
     24 C           1.1829   -2.6883    2.6103 C.2     1  UNL1       -0.0701
     25 C          -0.9699   -2.6878    1.4834 C.3     1  UNL1       -0.0520
     26 O           0.1904   -4.5912   -0.0707 O.3     1  UNL1       -0.3914
     27 C           2.9470   -3.1643   -3.4782 C.3     1  UNL1       -0.0562
     28 C           0.0214   -5.2118   -2.7941 C.2     1  UNL1        0.2022
     29 O          -1.0054   -5.1015   -2.1681 O.2     1  UNL1       -0.2907
     30 C           0.6785   -6.5610   -2.9319 C.3     1  UNL1        0.1530
     31 O          -0.1097   -7.5574   -2.2290 O.3     1  UNL1       -0.4568
     32 C           0.3422   -8.8211   -2.2548 C.2     1  UNL1        0.3075
     33 O           1.3627   -9.0858   -2.8451 O.2     1  UNL1       -0.2508
     34 C          -0.4232   -9.9096   -1.5474 C.3     1  UNL1        0.0450
     35 C           0.3016  -11.2445   -1.7308 C.3     1  UNL1       -0.0430
     36 C          -0.4755  -12.3496   -1.0127 C.3     1  UNL1       -0.0525
     37 C           0.2492  -13.6845   -1.1961 C.3     1  UNL1       -0.0526
     38 C          -0.5278  -14.7896   -0.4780 C.3     1  UNL1       -0.0448
     39 C           0.1969  -16.1245   -0.6614 C.3     1  UNL1        0.0241
     40 C          -0.5685  -17.2130    0.0460 C.2     1  UNL1        0.2154
     41 O          -1.5928  -16.9473    0.6385 O.2     1  UNL1       -0.2756
     42 N          -0.1147  -18.4819    0.0201 N.am    1  UNL1       -0.3030
     43 C           1.1226  -18.8029   -0.6956 C.3     1  UNL1        0.0032
     44 C          -0.8588  -19.5400    0.7078 C.3     1  UNL1        0.0328
     45 C          -1.8769  -20.1554   -0.2543 C.3     1  UNL1        0.0704
     46 S          -2.7982  -21.4657    0.5972 S.3     1  UNL1       -0.0791
     47 O          -1.9388  -22.5599    0.8859 O.2     1  UNL1       -0.1853
     48 O          -3.6229  -20.9054    1.6097 O.2     1  UNL1       -0.1853
     49 O           1.2522   -4.4040   -4.6775 O.3     1  UNL1       -0.3804
     50 H           0.3565    2.0235    0.7043 H       1  UNL1        0.0235
     51 H          -1.2027    2.0200   -0.1541 H       1  UNL1        0.0235
     52 H          -1.1593    1.8126    1.6132 H       1  UNL1        0.0235
     53 H          -0.3935    0.1809   -1.6440 H       1  UNL1        0.0274
     54 H           1.1659    0.2622   -0.7996 H       1  UNL1        0.0274
     55 H          -0.5008   -0.8377   -3.2121 H       1  UNL1        0.0269
     56 H           0.7892   -1.2673   -4.3735 H       1  UNL1        0.0269
     57 H          -1.2918   -3.0789   -3.0687 H       1  UNL1        0.0297
     58 H          -0.7614   -3.0293   -4.7772 H       1  UNL1        0.0297
     59 H           3.2096   -3.7230   -1.1606 H       1  UNL1        0.0297
     60 H           2.2419   -5.1204   -1.5534 H       1  UNL1        0.0297
     61 H           0.5243    1.1653    2.7716 H       1  UNL1        0.0656
     62 H           2.1897   -2.5367    4.4300 H       1  UNL1        0.0653
     63 H           1.3552   -3.7551    2.5797 H       1  UNL1        0.0582
     64 H          -1.5454   -2.2851    0.6499 H       1  UNL1        0.0241
     65 H          -0.8907   -3.7701    1.3810 H       1  UNL1        0.0241
     66 H          -1.4713   -2.4473    2.4209 H       1  UNL1        0.0241
     67 H           0.3383   -5.5457   -0.1183 H       1  UNL1        0.2098
     68 H           3.3326   -4.1535   -3.7251 H       1  UNL1        0.0236
     69 H           2.6740   -2.6416   -4.3949 H       1  UNL1        0.0236
     70 H           3.7136   -2.5967   -2.9508 H       1  UNL1        0.0236
     71 H           0.7383   -6.8053   -3.8997 H       1  UNL1        0.0779
     72 H           1.6804   -6.5225   -2.5043 H       1  UNL1        0.0779
     73 H          -0.4898   -9.6753   -0.4849 H       1  UNL1        0.0377
     74 H          -1.4265   -9.9801   -1.9675 H       1  UNL1        0.0377
     75 H           0.3682  -11.4787   -2.7933 H       1  UNL1        0.0270
     76 H           1.3049  -11.1739   -1.3107 H       1  UNL1        0.0270
     77 H          -0.5421  -12.1153    0.0498 H       1  UNL1        0.0265
     78 H          -1.4788  -12.4202   -1.4328 H       1  UNL1        0.0265
     79 H           0.3159  -13.9188   -2.2586 H       1  UNL1        0.0265
     80 H           1.2525  -13.6140   -0.7760 H       1  UNL1        0.0265
     81 H          -0.5945  -14.5554    0.5845 H       1  UNL1        0.0270
     82 H          -1.5311  -14.8602   -0.8981 H       1  UNL1        0.0270
     83 H           0.2635  -16.3588   -1.7238 H       1  UNL1        0.0358
     84 H           1.2002  -16.0540   -0.2413 H       1  UNL1        0.0358
     85 H           1.9702  -18.7065   -0.0172 H       1  UNL1        0.0428
     86 H           1.0711  -19.8254   -1.0697 H       1  UNL1        0.0428
     87 H           1.2470  -18.1156   -1.5324 H       1  UNL1        0.0428
     88 H          -0.1659  -20.3108    1.0454 H       1  UNL1        0.0480
     89 H          -1.3799  -19.1182    1.5672 H       1  UNL1        0.0480
     90 H          -2.5697  -19.3847   -0.5919 H       1  UNL1        0.0505
     91 H          -1.3558  -20.5773   -1.1137 H       1  UNL1        0.0505
     92 H           0.6495   -4.8551   -5.2844 H       1  UNL1        0.2108
     93 O          -3.7709  -22.0001   -0.4443 O.co2   1  UNL1       -0.7245
@<TRIPOS>UNITY_ATOM_ATTR
93 1
charge -1
@<TRIPOS>BOND
     1     1     2    1
     2     1    50    1
     3     1    51    1
     4     1    52    1
     5     2     3    1
     6     2    19    1
     7     2     4    1
     8     4     5    1
     9     4    53    1
    10     4    54    1
    11     5     6    1
    12     5    16    1
    13     5     7    1
    14     7     8    1
    15     7    12    1
    16     7     9    1
    17     9    10    1
    18     9    55    1
    19     9    56    1
    20    10    11    1
    21    10    57    1
    22    10    58    1
    23    11    12    1
    24    11    28    1
    25    11    49    1
    26    12    13    1
    27    12    27    1
    28    13    14    1
    29    13    59    1
    30    13    60    1
    31    14    15    1
    32    14    16    1
    33    14    26    1
    34    16    17    1
    35    16    18    1
    36    18    24    1
    37    18    19    1
    38    18    25    1
    39    19    20    2
    40    20    21    1
    41    20    61    1
    42    21    22    2
    43    21    23    1
    44    23    24    2
    45    23    62    1
    46    24    63    1
    47    25    64    1
    48    25    65    1
    49    25    66    1
    50    26    67    1
    51    27    68    1
    52    27    69    1
    53    27    70    1
    54    28    29    2
    55    28    30    1
    56    30    31    1
    57    30    71    1
    58    30    72    1
    59    31    32    1
    60    32    33    2
    61    32    34    1
    62    34    35    1
    63    34    73    1
    64    34    74    1
    65    35    36    1
    66    35    75    1
    67    35    76    1
    68    36    37    1
    69    36    77    1
    70    36    78    1
    71    37    38    1
    72    37    79    1
    73    37    80    1
    74    38    39    1
    75    38    81    1
    76    38    82    1
    77    39    40    1
    78    39    83    1
    79    39    84    1
    80    40    41    2
    81    40    42   am
    82    42    43    1
    83    42    44    1
    84    43    85    1
    85    43    86    1
    86    43    87    1
    87    44    45    1
    88    44    88    1
    89    44    89    1
    90    45    46    1
    91    45    90    1
    92    45    91    1
    93    46    47    2
    94    46    48    2
    95    46    93    1
    96    49    92    1
