@<TRIPOS>MOLECULE
ZINC00897245
 31 33 0 0 0
SMALL
GASTEIGER

@<TRIPOS>ATOM
      1 C           1.0913    3.1089   -2.4786 C.3     1  UNL1       -0.0360
      2 C           0.8837    3.8700   -1.1677 C.3     1  UNL1        0.1300
      3 C           1.3482    5.3500   -1.2855 C.3     1  UNL1        0.0936
      4 H           1.5306    5.7479   -0.2872 H       1  UNL1        0.0585
      5 N           0.3342    6.1723   -1.9531 N.am    1  UNL1       -0.2685
      6 C          -1.0592    5.7349   -1.7928 C.3     1  UNL1        0.1535
      7 H          -1.6535    5.6684   -2.7041 H       1  UNL1        0.0750
      8 S          -0.9095    4.1728   -0.8316 S.O2    1  UNL1       -0.0024
      9 O          -1.6844    3.1585   -1.4562 O.2     1  UNL1       -0.1719
     10 O          -1.0901    4.4501    0.5503 O.2     1  UNL1       -0.1719
     11 C          -1.2921    6.9709   -0.9420 C.3     1  UNL1        0.0629
     12 C           0.0619    7.3857   -1.4355 C.2     1  UNL1        0.2210
     13 O           0.6815    8.4271   -1.3870 O.2     1  UNL1       -0.2754
     14 C           2.6275    5.4047   -2.0802 C.2     1  UNL1        0.0644
     15 O           2.6000    5.7089   -3.2492 O.co2   1  UNL1       -0.5478
     16 C           1.5636    3.1582    0.0037 C.3     1  UNL1        0.0701
     17 N           1.1866    1.7425    0.0001 N.ar    1  UNL1       -0.2496
     18 C           2.0421    0.6943   -0.0137 C.ar    1  UNL1        0.0455
     19 C           1.2735   -0.4198   -0.0124 C.ar    1  UNL1        0.0693
     20 N           0.0021   -0.0041    0.0020 N.ar    1  UNL1       -0.1380
     21 N          -0.0154    1.2821    0.0091 N.ar    1  UNL1       -0.0657
     22 H           0.6792    2.1042   -2.3846 H       1  UNL1        0.0252
     23 H           0.5852    3.6348   -3.2882 H       1  UNL1        0.0252
     24 H           2.1573    3.0454   -2.6971 H       1  UNL1        0.0252
     25 H          -1.3327    6.7717    0.1288 H       1  UNL1        0.0393
     26 H          -2.1059    7.6065   -1.2911 H       1  UNL1        0.0393
     27 H           1.2466    3.6162    0.9406 H       1  UNL1        0.0532
     28 H           2.6454    3.2463   -0.0961 H       1  UNL1        0.0532
     29 H           3.1212    0.7378   -0.0245 H       1  UNL1        0.0842
     30 H           1.6187   -1.4431   -0.0206 H       1  UNL1        0.0864
     31 O           3.7975    5.1154   -1.4893 O.co2   1  UNL1       -0.5478
@<TRIPOS>UNITY_ATOM_ATTR
31 1
charge -1
@<TRIPOS>BOND
     1     1     2    1
     2     1    22    1
     3     1    23    1
     4     1    24    1
     5     2     8    1
     6     2     3    1
     7     2    16    1
     8     3     4    1
     9     3     5    1
    10     3    14    1
    11     5    12   am
    12     5     6    1
    13     6     7    1
    14     6     8    1
    15     6    11    1
    16     8     9    2
    17     8    10    2
    18    11    12    1
    19    11    25    1
    20    11    26    1
    21    12    13    2
    22    14    15   ar
    23    14    31   ar
    24    16    17    1
    25    16    27    1
    26    16    28    1
    27    17    21   ar
    28    17    18   ar
    29    18    19   ar
    30    18    29    1
    31    19    20   ar
    32    19    30    1
    33    20    21   ar
