@<TRIPOS>MOLECULE
ZINC03831226
 48 51 0 0 0
SMALL
GASTEIGER

@<TRIPOS>ATOM
      1 C          -0.7373    1.9816   -1.2614 C.3     1  UNL1       -0.0558
      2 C          -0.0188    1.5360    0.0105 C.3     1  UNL1        0.0111
      3 C          -0.6649    2.1501    1.2312 C.3     1  UNL1       -0.0433
      4 C          -0.4248    3.6656    1.2066 C.3     1  UNL1       -0.0456
      5 C           1.0640    4.0007    1.1928 C.3     1  UNL1       -0.0165
      6 H           1.5037    3.6235    2.1248 H       1  UNL1        0.0348
      7 C           1.7896    3.3334    0.0253 C.3     1  UNL1       -0.0308
      8 H           2.8778    3.4549    0.2051 H       1  UNL1        0.0309
      9 C           1.4850    1.8713    0.0126 C.3     1  UNL1       -0.0286
     10 H           1.9244    1.4353    0.9407 H       1  UNL1        0.0310
     11 C           1.9992    1.0178   -1.1520 C.3     1  UNL1       -0.0458
     12 C           1.2362   -0.3219   -0.9424 C.3     1  UNL1       -0.0118
     13 C           0.0345   -0.0031   -0.0160 C.3     1  UNL1        0.1317
     14 C          -1.2102   -0.5379   -0.5842 C.1     1  UNL1       -0.0704
     15 C          -2.2049   -0.9653   -1.0382 C.1     1  UNL1       -0.1163
     16 O           0.2586   -0.5123    1.2950 O.3     1  UNL1       -0.3760
     17 C           1.4490    4.0838   -1.2562 C.3     1  UNL1       -0.0457
     18 C           2.0851    5.4695   -1.1498 C.3     1  UNL1       -0.0308
     19 C           1.6743    6.1567    0.1378 C.2     1  UNL1       -0.0629
     20 C           1.2280    5.5092    1.1695 C.2     1  UNL1       -0.0661
     21 C           0.8220    6.1817    2.4660 C.3     1  UNL1       -0.0245
     22 C           1.4936    7.5394    2.6363 C.3     1  UNL1        0.0098
     23 C           1.2632    8.2967    1.3412 C.2     1  UNL1        0.1376
     24 O           0.6612    9.3433    1.3107 O.2     1  UNL1       -0.2971
     25 C           1.8294    7.6654    0.0980 C.3     1  UNL1        0.0272
     26 H          -1.7197    1.5117   -1.3073 H       1  UNL1        0.0236
     27 H          -0.8530    3.0654   -1.2526 H       1  UNL1        0.0236
     28 H          -0.1519    1.6858   -2.1320 H       1  UNL1        0.0236
     29 H          -1.7396    1.9504    1.2254 H       1  UNL1        0.0272
     30 H          -0.2288    1.7273    2.1398 H       1  UNL1        0.0272
     31 H          -0.8705    4.1013    2.1062 H       1  UNL1        0.0271
     32 H          -0.9060    4.1098    0.3404 H       1  UNL1        0.0271
     33 H           3.0759    0.8576   -1.0602 H       1  UNL1        0.0269
     34 H           1.7631    1.4602   -2.1142 H       1  UNL1        0.0269
     35 H           1.8914   -1.0502   -0.4643 H       1  UNL1        0.0303
     36 H           0.8831   -0.7049   -1.8983 H       1  UNL1        0.0303
     37 H          -3.0945   -1.3476   -1.4444 H       1  UNL1        0.1229
     38 H           0.3017   -1.4773    1.3400 H       1  UNL1        0.2114
     39 H           1.8453    3.5649   -2.1262 H       1  UNL1        0.0271
     40 H           0.3719    4.2259   -1.3542 H       1  UNL1        0.0271
     41 H           3.1673    5.3649   -1.1717 H       1  UNL1        0.0310
     42 H           1.7590    6.0714   -1.9957 H       1  UNL1        0.0310
     43 H          -0.2588    6.3180    2.4700 H       1  UNL1        0.0314
     44 H           1.1039    5.5401    3.3003 H       1  UNL1        0.0314
     45 H           1.0863    8.0174    3.4145 H       1  UNL1        0.0345
     46 H           2.5620    7.4096    2.8079 H       1  UNL1        0.0345
     47 H           2.7996    7.8992    0.0341 H       1  UNL1        0.0387
     48 H           1.3018    8.0569   -0.7730 H       1  UNL1        0.0387
@<TRIPOS>BOND
     1     1     2    1
     2     1    26    1
     3     1    27    1
     4     1    28    1
     5     2     9    1
     6     2    13    1
     7     2     3    1
     8     3     4    1
     9     3    29    1
    10     3    30    1
    11     4     5    1
    12     4    31    1
    13     4    32    1
    14     5     6    1
    15     5    20    1
    16     5     7    1
    17     7     8    1
    18     7     9    1
    19     7    17    1
    20     9    10    1
    21     9    11    1
    22    11    12    1
    23    11    33    1
    24    11    34    1
    25    12    13    1
    26    12    35    1
    27    12    36    1
    28    13    14    1
    29    13    16    1
    30    14    15    3
    31    15    37    1
    32    16    38    1
    33    17    18    1
    34    17    39    1
    35    17    40    1
    36    18    19    1
    37    18    41    1
    38    18    42    1
    39    19    25    1
    40    19    20    2
    41    20    21    1
    42    21    22    1
    43    21    43    1
    44    21    44    1
    45    22    23    1
    46    22    45    1
    47    22    46    1
    48    23    24    2
    49    23    25    1
    50    25    47    1
    51    25    48    1
