@<TRIPOS>MOLECULE
ZINC11677979
 73 76 0 0 0
SMALL
GASTEIGER

@<TRIPOS>ATOM
      1 C          -2.0157    6.5090    2.4375 C.3     1  UNL1       -0.0653
      2 C          -2.0032    5.0193    2.7861 C.3     1  UNL1       -0.0554
      3 C          -3.4391    4.4925    2.8246 C.3     1  UNL1       -0.0432
      4 C          -3.4266    3.0028    3.1733 C.3     1  UNL1        0.0450
      5 C          -4.8409    2.4839    3.2112 C.2     1  UNL1        0.3080
      6 O          -5.7642    3.2291    2.9829 O.2     1  UNL1       -0.2508
      7 O          -5.0750    1.1938    3.4987 O.3     1  UNL1       -0.4496
      8 C          -6.4610    0.7877    3.6199 C.3     1  UNL1        0.1796
      9 C          -6.5528   -0.7458    3.8393 C.3     1  UNL1       -0.0048
     10 C          -7.6288   -0.9703    4.9315 C.3     1  UNL1       -0.0453
     11 C          -8.2705    0.4132    5.1317 C.3     1  UNL1       -0.0281
     12 H          -9.0544    0.5733    4.3826 H       1  UNL1        0.0310
     13 C          -7.0772    1.3684    4.8985 C.3     1  UNL1        0.0204
     14 C          -7.5683    2.7914    4.8439 C.3     1  UNL1       -0.0168
     15 C          -9.0135    2.8687    5.3781 C.3     1  UNL1        0.0600
     16 H          -9.6765    2.4465    4.6250 H       1  UNL1        0.0596
     17 C          -9.1421    2.1153    6.6944 C.3     1  UNL1        0.0007
     18 H          -8.3057    2.4952    7.3131 H       1  UNL1        0.0340
     19 C          -8.8370    0.6352    6.5236 C.3     1  UNL1       -0.0310
     20 H          -8.1122    0.3279    7.2802 H       1  UNL1        0.0308
     21 C         -10.0908   -0.2269    6.6929 C.3     1  UNL1       -0.0458
     22 C         -10.5559   -0.0805    8.1453 C.3     1  UNL1       -0.0302
     23 C         -10.8815    1.3729    8.3890 C.2     1  UNL1       -0.0559
     24 C         -11.6904    1.6529    9.4216 C.2     1  UNL1       -0.0149
     25 C         -11.9330    3.0755    9.7530 C.2     1  UNL1        0.1787
     26 O         -12.9233    3.4407   10.3667 O.2     1  UNL1       -0.2879
     27 C         -10.8779    4.0329    9.3406 C.2     1  UNL1       -0.0180
     28 C         -10.1428    3.7373    8.2633 C.2     1  UNL1       -0.0701
     29 C         -10.3619    2.4557    7.5005 C.3     1  UNL1        0.0131
     30 C         -11.5014    2.7420    6.5229 C.3     1  UNL1       -0.0520
     31 O          -9.3211    4.2562    5.5579 O.3     1  UNL1       -0.3914
     32 C          -6.0432    1.2303    6.0266 C.3     1  UNL1       -0.0551
     33 C          -7.2372    1.1674    2.3916 C.2     1  UNL1        0.2142
     34 O          -8.4012    1.4755    2.4842 O.2     1  UNL1       -0.2895
     35 C          -6.5636    1.1640    1.0436 C.3     1  UNL1        0.1542
     36 O          -7.5452    1.4450    0.0113 O.3     1  UNL1       -0.4570
     37 C          -7.1043    1.4782   -1.2561 C.2     1  UNL1        0.3043
     38 O          -5.9368    1.2790   -1.4950 O.2     1  UNL1       -0.2512
     39 C          -8.0655    1.7639   -2.3811 C.3     1  UNL1        0.0332
     40 H          -2.4807    6.6500    1.4618 H       1  UNL1        0.0230
     41 H          -0.9927    6.8844    2.4100 H       1  UNL1        0.0230
     42 H          -2.5825    7.0541    3.1923 H       1  UNL1        0.0230
     43 H          -1.4363    4.4743    2.0313 H       1  UNL1        0.0263
     44 H          -1.5381    4.8784    3.7618 H       1  UNL1        0.0263
     45 H          -4.0059    5.0376    3.5794 H       1  UNL1        0.0270
     46 H          -3.9041    4.6334    1.8489 H       1  UNL1        0.0270
     47 H          -2.8597    2.4578    2.4185 H       1  UNL1        0.0377
     48 H          -2.9615    2.8619    4.1490 H       1  UNL1        0.0377
     49 H          -6.8449   -1.2376    2.9128 H       1  UNL1        0.0308
     50 H          -5.5902   -1.1250    4.1808 H       1  UNL1        0.0308
     51 H          -8.3769   -1.6874    4.5859 H       1  UNL1        0.0270
     52 H          -7.1762   -1.3253    5.8576 H       1  UNL1        0.0270
     53 H          -7.5328    3.2092    3.8426 H       1  UNL1        0.0297
     54 H          -6.9329    3.4187    5.4869 H       1  UNL1        0.0297
     55 H         -10.8701    0.1042    6.0111 H       1  UNL1        0.0271
     56 H          -9.8468   -1.2713    6.4883 H       1  UNL1        0.0271
     57 H         -11.4476   -0.6829    8.3098 H       1  UNL1        0.0310
     58 H          -9.7651   -0.3943    8.8223 H       1  UNL1        0.0310
     59 H         -12.1203    0.8544   10.0263 H       1  UNL1        0.0655
     60 H         -10.6997    4.9456    9.9076 H       1  UNL1        0.0653
     61 H          -9.3669    4.4286    7.9404 H       1  UNL1        0.0582
     62 H         -12.3833    3.0635    7.0770 H       1  UNL1        0.0241
     63 H         -11.1988    3.5296    5.8328 H       1  UNL1        0.0241
     64 H         -11.7347    1.8372    5.9618 H       1  UNL1        0.0241
     65 H          -9.2542    4.7819    4.7490 H       1  UNL1        0.2098
     66 H          -5.1496    1.8001    5.7722 H       1  UNL1        0.0237
     67 H          -6.4659    1.6129    6.9557 H       1  UNL1        0.0237
     68 H          -5.7808    0.1798    6.1523 H       1  UNL1        0.0237
     69 H          -5.8507    1.8651    1.0254 H       1  UNL1        0.0780
     70 H          -6.1165    0.1864    0.8633 H       1  UNL1        0.0780
     71 H          -8.1068    2.8383   -2.5597 H       1  UNL1        0.0342
     72 H          -7.7272    1.2580   -3.2853 H       1  UNL1        0.0342
     73 H          -9.0578    1.4019   -2.1119 H       1  UNL1        0.0342
@<TRIPOS>BOND
     1     1     2    1
     2     1    40    1
     3     1    41    1
     4     1    42    1
     5     2     3    1
     6     2    43    1
     7     2    44    1
     8     3     4    1
     9     3    45    1
    10     3    46    1
    11     4     5    1
    12     4    47    1
    13     4    48    1
    14     5     6    2
    15     5     7    1
    16     7     8    1
    17     8    13    1
    18     8     9    1
    19     8    33    1
    20     9    10    1
    21     9    49    1
    22     9    50    1
    23    10    11    1
    24    10    51    1
    25    10    52    1
    26    11    12    1
    27    11    19    1
    28    11    13    1
    29    13    14    1
    30    13    32    1
    31    14    15    1
    32    14    53    1
    33    14    54    1
    34    15    16    1
    35    15    17    1
    36    15    31    1
    37    17    18    1
    38    17    29    1
    39    17    19    1
    40    19    20    1
    41    19    21    1
    42    21    22    1
    43    21    55    1
    44    21    56    1
    45    22    23    1
    46    22    57    1
    47    22    58    1
    48    23    29    1
    49    23    24    2
    50    24    25    1
    51    24    59    1
    52    25    26    2
    53    25    27    1
    54    27    28    2
    55    27    60    1
    56    28    29    1
    57    28    61    1
    58    29    30    1
    59    30    62    1
    60    30    63    1
    61    30    64    1
    62    31    65    1
    63    32    66    1
    64    32    67    1
    65    32    68    1
    66    33    34    2
    67    33    35    1
    68    35    36    1
    69    35    69    1
    70    35    70    1
    71    36    37    1
    72    37    38    2
    73    37    39    1
    74    39    71    1
    75    39    72    1
    76    39    73    1
