@<TRIPOS>MOLECULE
ZINC00601314
 54 56 0 0 0
SMALL
GASTEIGER

@<TRIPOS>ATOM
      1 C          -3.2018   -0.3454    8.2996 C.3     1  UNL1       -0.0244
      2 C          -3.0327   -0.4458    6.7823 C.3     1  UNL1       -0.0331
      3 N          -3.4232   -1.7891    6.3339 N.4     1  UNL1        0.2436
      4 C          -2.5772   -2.7894    6.9959 C.3     1  UNL1       -0.0301
      5 C          -3.0326   -4.1941    6.5947 C.3     1  UNL1       -0.0089
      6 C          -2.9149   -4.3486    5.0757 C.3     1  UNL1       -0.0058
      7 C          -3.7422   -3.2539    4.3956 C.3     1  UNL1        0.1427
      8 H          -4.7943   -3.3804    4.6507 H       1  UNL1        0.0788
      9 C          -3.2605   -1.8840    4.8783 C.3     1  UNL1        0.0076
     10 O          -3.5779   -3.3460    2.9558 O.3     1  UNL1       -0.4535
     11 C          -4.4469   -4.1244    2.2919 C.2     1  UNL1        0.3489
     12 O          -5.3160   -4.7094    2.8939 O.2     1  UNL1       -0.2468
     13 C          -4.3385   -4.2686    0.7958 C.3     1  UNL1        0.2134
     14 C          -4.9520   -5.5781    0.3716 C.ar    1  UNL1       -0.0008
     15 C          -4.1632   -6.5567   -0.2037 C.ar    1  UNL1       -0.0550
     16 C          -4.7252   -7.7595   -0.5888 C.ar    1  UNL1       -0.0614
     17 C          -6.0777   -7.9802   -0.4070 C.ar    1  UNL1       -0.0617
     18 C          -6.8674   -6.9996    0.1636 C.ar    1  UNL1       -0.0614
     19 C          -6.3046   -5.7984    0.5526 C.ar    1  UNL1       -0.0550
     20 C          -5.0683   -3.1320    0.1274 C.ar    1  UNL1       -0.0008
     21 C          -6.2899   -2.7111    0.6186 C.ar    1  UNL1       -0.0550
     22 C          -6.9572   -1.6657    0.0081 C.ar    1  UNL1       -0.0614
     23 C          -6.4072   -1.0472   -1.0991 C.ar    1  UNL1       -0.0617
     24 C          -5.1881   -1.4716   -1.5935 C.ar    1  UNL1       -0.0614
     25 C          -4.5187   -2.5142   -0.9804 C.ar    1  UNL1       -0.0550
     26 O          -2.9620   -4.2414    0.4131 O.3     1  UNL1       -0.3698
     27 C          -4.8289   -2.0316    6.6849 C.3     1  UNL1       -0.0412
     28 H          -4.2440   -0.5273    8.5619 H       1  UNL1        0.0281
     29 H          -2.5698   -1.0886    8.7856 H       1  UNL1        0.0281
     30 H          -2.9121    0.6514    8.6322 H       1  UNL1        0.0281
     31 H          -1.9905   -0.2639    6.5200 H       1  UNL1        0.0812
     32 H          -3.6648    0.2974    6.2963 H       1  UNL1        0.0812
     33 H          -1.5399   -2.6443    6.6942 H       1  UNL1        0.0815
     34 H          -2.6595   -2.6762    8.0769 H       1  UNL1        0.0815
     35 H          -4.0698   -4.3404    6.8962 H       1  UNL1        0.0318
     36 H          -2.4021   -4.9353    7.0859 H       1  UNL1        0.0318
     37 H          -3.2913   -5.3274    4.7786 H       1  UNL1        0.0305
     38 H          -1.8703   -4.2531    4.7794 H       1  UNL1        0.0305
     39 H          -3.8473   -1.1023    4.3958 H       1  UNL1        0.0852
     40 H          -2.2085   -1.7587    4.6217 H       1  UNL1        0.0852
     41 H          -3.1073   -6.3828   -0.3493 H       1  UNL1        0.0621
     42 H          -4.1081   -8.5258   -1.0343 H       1  UNL1        0.0618
     43 H          -6.5172   -8.9189   -0.7103 H       1  UNL1        0.0618
     44 H          -7.9241   -7.1720    0.3056 H       1  UNL1        0.0618
     45 H          -6.9217   -5.0322    0.9983 H       1  UNL1        0.0621
     46 H          -6.7214   -3.1967    1.4814 H       1  UNL1        0.0621
     47 H          -7.9096   -1.3339    0.3946 H       1  UNL1        0.0618
     48 H          -6.9299   -0.2322   -1.5776 H       1  UNL1        0.0618
     49 H          -4.7584   -0.9884   -2.4585 H       1  UNL1        0.0618
     50 H          -3.5662   -2.8457   -1.3666 H       1  UNL1        0.0621
     51 H          -2.4302   -4.9465    0.8070 H       1  UNL1        0.2117
     52 H          -5.4587   -1.2877    6.1969 H       1  UNL1        0.0778
     53 H          -5.1197   -3.0281    6.3526 H       1  UNL1        0.0778
     54 H          -4.9514   -1.9587    7.7655 H       1  UNL1        0.0778
@<TRIPOS>UNITY_ATOM_ATTR
3 1
charge 1
@<TRIPOS>BOND
     1     1     2    1
     2     1    28    1
     3     1    29    1
     4     1    30    1
     5     2     3    1
     6     2    31    1
     7     2    32    1
     8     3     9    1
     9     3     4    1
    10     3    27    1
    11     4     5    1
    12     4    33    1
    13     4    34    1
    14     5     6    1
    15     5    35    1
    16     5    36    1
    17     6     7    1
    18     6    37    1
    19     6    38    1
    20     7     8    1
    21     7     9    1
    22     7    10    1
    23     9    39    1
    24     9    40    1
    25    10    11    1
    26    11    12    2
    27    11    13    1
    28    13    14    1
    29    13    20    1
    30    13    26    1
    31    14    19   ar
    32    14    15   ar
    33    15    16   ar
    34    15    41    1
    35    16    17   ar
    36    16    42    1
    37    17    18   ar
    38    17    43    1
    39    18    19   ar
    40    18    44    1
    41    19    45    1
    42    20    25   ar
    43    20    21   ar
    44    21    22   ar
    45    21    46    1
    46    22    23   ar
    47    22    47    1
    48    23    24   ar
    49    23    48    1
    50    24    25   ar
    51    24    49    1
    52    25    50    1
    53    26    51    1
    54    27    52    1
    55    27    53    1
    56    27    54    1
