@<TRIPOS>MOLECULE
ZINC00002200
 45 46 0 0 0
SMALL
GASTEIGER

@<TRIPOS>ATOM
      1 C          -4.3360    0.0060   -2.3149 C.3     1  UNL1       -0.0433
      2 C          -3.4265   -2.0815   -1.4917 C.3     1  UNL1       -0.0433
      3 H          -2.8695   -2.5368   -0.6728 H       1  UNL1        0.0777
      4 H          -4.4311   -2.5031   -1.5264 H       1  UNL1        0.0777
      5 H          -2.9159   -2.2814   -2.4337 H       1  UNL1        0.0777
      6 C          -2.1733   -0.0268   -1.2266 C.3     1  UNL1       -0.0265
      7 C          -1.4333   -0.5336    0.0129 C.3     1  UNL1        0.0321
      8 H          -1.4185   -1.6235    0.0069 H       1  UNL1        0.0384
      9 C          -2.1494   -0.0402    1.2717 C.3     1  UNL1       -0.0424
     10 C          -1.4095   -0.5471    2.5112 C.3     1  UNL1       -0.0524
     11 C           0.0259   -0.0175    2.5003 C.3     1  UNL1       -0.0501
     12 C           0.7421   -0.5109    1.2415 C.3     1  UNL1       -0.0194
     13 C           0.0021   -0.0041    0.0020 C.3     1  UNL1        0.0987
     14 C           0.7074   -0.4901   -1.2379 C.ar    1  UNL1       -0.0122
     15 C           0.3564   -1.7029   -1.8018 C.ar    1  UNL1       -0.0556
     16 C           0.9977   -2.1489   -2.9425 C.ar    1  UNL1       -0.0580
     17 C           1.9991   -1.3887   -3.5154 C.ar    1  UNL1       -0.0199
     18 C           2.3570   -0.1744   -2.9483 C.ar    1  UNL1        0.1204
     19 C           1.7079    0.2736   -1.8068 C.ar    1  UNL1       -0.0140
     20 O           3.3419    0.5750   -3.5097 O.3     1  UNL1       -0.4951
     21 C           3.9663    0.0515   -4.6837 C.3     1  UNL1        0.0788
     22 O          -0.0173    1.4248    0.0099 O.3     1  UNL1       -0.3835
     23 H          -3.8583   -0.1182   -3.2867 H       1  UNL1        0.0777
     24 H          -5.3213   -0.4598   -2.3321 H       1  UNL1        0.0777
     25 H          -4.4402    1.0684   -2.0944 H       1  UNL1        0.0777
     26 H          -2.2658    1.0581   -1.1763 H       1  UNL1        0.0818
     27 H          -1.6150   -0.3027   -2.1212 H       1  UNL1        0.0818
     28 H          -2.1642    1.0497    1.2777 H       1  UNL1        0.0271
     29 H          -3.1720   -0.4175    1.2794 H       1  UNL1        0.0271
     30 H          -1.9196   -0.1955    3.4080 H       1  UNL1        0.0265
     31 H          -1.3947   -1.6369    2.5052 H       1  UNL1        0.0265
     32 H           0.0111    1.0724    2.5063 H       1  UNL1        0.0266
     33 H           0.5531   -0.3786    3.3834 H       1  UNL1        0.0266
     34 H           0.7568   -1.6008    1.2356 H       1  UNL1        0.0296
     35 H           1.7647   -0.1336    1.2338 H       1  UNL1        0.0296
     36 H          -0.4228   -2.3009   -1.3528 H       1  UNL1        0.0621
     37 H           0.7185   -3.0942   -3.3838 H       1  UNL1        0.0619
     38 H           2.5031   -1.7397   -4.4037 H       1  UNL1        0.0654
     39 H           1.9845    1.2189   -1.3636 H       1  UNL1        0.0658
     40 H           4.7322    0.7462   -5.0284 H       1  UNL1        0.0660
     41 H           4.4251   -0.9100   -4.4531 H       1  UNL1        0.0660
     42 H           3.2178   -0.0811   -5.4649 H       1  UNL1        0.0660
     43 H           0.8606    1.8301    0.0037 H       1  UNL1        0.2106
     44 N          -3.5242   -0.6260   -1.2536 N.4     1  UNL1        0.2312
     45 H          -3.9782   -0.4662   -0.3467 H       1  UNL1        0.2028
@<TRIPOS>UNITY_ATOM_ATTR
44 1
charge 1
@<TRIPOS>BOND
     1     1    23    1
     2     1    24    1
     3     1    25    1
     4     1    44    1
     5     2     3    1
     6     2     4    1
     7     2     5    1
     8     2    44    1
     9     6     7    1
    10     6    26    1
    11     6    27    1
    12     6    44    1
    13     7     8    1
    14     7    13    1
    15     7     9    1
    16     9    10    1
    17     9    28    1
    18     9    29    1
    19    10    11    1
    20    10    30    1
    21    10    31    1
    22    11    12    1
    23    11    32    1
    24    11    33    1
    25    12    13    1
    26    12    34    1
    27    12    35    1
    28    13    14    1
    29    13    22    1
    30    14    19   ar
    31    14    15   ar
    32    15    16   ar
    33    15    36    1
    34    16    17   ar
    35    16    37    1
    36    17    18   ar
    37    17    38    1
    38    18    19   ar
    39    18    20    1
    40    19    39    1
    41    20    21    1
    42    21    40    1
    43    21    41    1
    44    21    42    1
    45    22    43    1
    46    44    45    1
