@<TRIPOS>MOLECULE
ZINC03830880
 54 55 0 0 0
SMALL
GASTEIGER

@<TRIPOS>ATOM
      1 C           2.0868   11.6983    1.8709 C.3     1  UNL1       -0.0046
      2 C           1.8425   10.2453    1.5542 C.ar    1  UNL1        0.1280
      3 N           2.3758    9.3223    2.3291 N.ar    1  UNL1       -0.2401
      4 C           2.1858    8.0333    2.0860 C.ar    1  UNL1        0.0376
      5 C           1.4160    7.6584    1.0022 C.ar    1  UNL1        0.0274
      6 C           0.8705    8.6612    0.1983 C.ar    1  UNL1        0.1243
      7 N           1.1021    9.9331    0.5101 N.ar    1  UNL1       -0.2177
      8 N           0.0959    8.3364   -0.9036 N.pl3   1  UNL1       -0.3428
      9 C           1.1759    6.2034    0.6916 C.3     1  UNL1        0.0437
     10 N           2.0861    5.7748   -0.3733 N.pl3   1  UNL1       -0.3056
     11 C           1.6454    5.8059   -1.7701 C.3     1  UNL1        0.1105
     12 O           2.1900    6.9585   -2.4158 O.3     1  UNL1       -0.3770
     13 C           3.3786    5.3349   -0.0558 C.2     1  UNL1        0.0157
     14 C           3.5464    4.2248    0.6477 C.2     1  UNL1        0.0151
     15 C           4.9248    3.8249    1.1070 C.3     1  UNL1        0.0038
     16 C           5.6044    2.9935    0.0171 C.3     1  UNL1        0.0487
     17 O           6.9115    2.6143    0.4527 O.3     1  UNL1       -0.3947
     18 S           2.1578    3.2159    1.0462 S.3     1  UNL1       -0.0598
     19 S           2.9343    1.7627    2.2659 S.3     1  UNL1       -0.0858
     20 C           2.9010    2.5121    3.9175 C.3     1  UNL1        0.0305
     21 C           1.4494    2.7058    4.3605 C.3     1  UNL1        0.0685
     22 H           0.9026    3.3076    3.6346 H       1  UNL1        0.0604
     23 C           1.3898    3.3576    5.7654 C.3     1  UNL1       -0.0237
     24 C           0.0053    2.8936    6.2798 C.3     1  UNL1       -0.0271
     25 C          -0.3210    1.6559    5.4217 C.3     1  UNL1        0.0481
     26 O           0.8021    1.4297    4.5535 O.3     1  UNL1       -0.3757
     27 C           4.5772    6.1246   -0.5146 C.3     1  UNL1       -0.0258
     28 H           2.9854   12.0365    1.3550 H       1  UNL1        0.0308
     29 H           1.2334   12.2906    1.5406 H       1  UNL1        0.0308
     30 H           2.2181   11.8186    2.9462 H       1  UNL1        0.0308
     31 H           2.6272    7.2851    2.7277 H       1  UNL1        0.0834
     32 H          -0.1826    7.4184   -1.0470 H       1  UNL1        0.1437
     33 H          -0.1678    9.0271   -1.5315 H       1  UNL1        0.1437
     34 H           0.1449    6.0668    0.3653 H       1  UNL1        0.0515
     35 H           1.3562    5.6065    1.5857 H       1  UNL1        0.0515
     36 H           1.9907    4.9066   -2.2802 H       1  UNL1        0.0769
     37 H           0.5569    5.8492   -1.8068 H       1  UNL1        0.0769
     38 H           2.0025    7.0039   -3.3634 H       1  UNL1        0.2115
     39 H           5.5161    4.7194    1.3033 H       1  UNL1        0.0341
     40 H           4.8465    3.2336    2.0193 H       1  UNL1        0.0341
     41 H           5.0131    2.0990   -0.1792 H       1  UNL1        0.0560
     42 H           5.6827    3.5848   -0.8952 H       1  UNL1        0.0560
     43 H           7.4017    2.0836   -0.1901 H       1  UNL1        0.2094
     44 H           3.4040    3.4786    3.8882 H       1  UNL1        0.0410
     45 H           3.4121    1.8578    4.6238 H       1  UNL1        0.0410
     46 H           1.4333    4.4443    5.6922 H       1  UNL1        0.0291
     47 H           2.1884    2.9803    6.4041 H       1  UNL1        0.0291
     48 H          -0.7405    3.6731    6.1240 H       1  UNL1        0.0288
     49 H           0.0588    2.6233    7.3344 H       1  UNL1        0.0288
     50 H          -1.2164    1.8416    4.8286 H       1  UNL1        0.0560
     51 H          -0.4730    0.7888    6.0645 H       1  UNL1        0.0560
     52 H           4.9498    5.7086   -1.4507 H       1  UNL1        0.0290
     53 H           4.2899    7.1648   -0.6682 H       1  UNL1        0.0290
     54 H           5.3590    6.0716    0.2431 H       1  UNL1        0.0290
@<TRIPOS>BOND
     1     1     2    1
     2     1    28    1
     3     1    29    1
     4     1    30    1
     5     2     7   ar
     6     2     3   ar
     7     3     4   ar
     8     4     5   ar
     9     4    31    1
    10     5     6   ar
    11     5     9    1
    12     6     7   ar
    13     6     8    1
    14     8    32    1
    15     8    33    1
    16     9    10    1
    17     9    34    1
    18     9    35    1
    19    10    11    1
    20    10    13    1
    21    11    12    1
    22    11    36    1
    23    11    37    1
    24    12    38    1
    25    13    14    2
    26    13    27    1
    27    14    15    1
    28    14    18    1
    29    15    16    1
    30    15    39    1
    31    15    40    1
    32    16    17    1
    33    16    41    1
    34    16    42    1
    35    17    43    1
    36    18    19    1
    37    19    20    1
    38    20    21    1
    39    20    44    1
    40    20    45    1
    41    21    22    1
    42    21    26    1
    43    21    23    1
    44    23    24    1
    45    23    46    1
    46    23    47    1
    47    24    25    1
    48    24    48    1
    49    24    49    1
    50    25    26    1
    51    25    50    1
    52    25    51    1
    53    27    52    1
    54    27    53    1
    55    27    54    1
