@<TRIPOS>MOLECULE
ZINC00057261
 36 36 0 0 0
SMALL
GASTEIGER

@<TRIPOS>ATOM
      1 C          -7.1949    3.9229   -3.5859 C.3     1  UNL1       -0.0193
      2 C          -7.0428    5.1880   -2.7391 C.3     1  UNL1       -0.0203
      3 C          -8.3791    5.9313   -2.6880 C.3     1  UNL1       -0.0193
      4 C          -5.9788    6.0939   -3.3621 C.3     1  UNL1       -0.0193
      5 C          -5.3532    4.1021   -1.3868 C.3     1  UNL1       -0.0023
      6 C          -4.9626    3.7356    0.0464 C.3     1  UNL1        0.1198
      7 H          -5.7323    3.0977    0.4809 H       1  UNL1        0.0698
      8 C          -3.6474    2.9999    0.0362 C.ar    1  UNL1       -0.0112
      9 C          -3.6306    1.6172    0.0285 C.ar    1  UNL1       -0.0357
     10 C          -2.4263    0.9390    0.0187 C.ar    1  UNL1        0.0633
     11 C          -1.2314    1.6484    0.0168 C.ar    1  UNL1        0.0617
     12 C          -1.2522    3.0378    0.0303 C.ar    1  UNL1        0.0633
     13 C          -2.4604    3.7092    0.0348 C.ar    1  UNL1       -0.0357
     14 CL          0.2375    3.9292    0.0354 Cl      1  UNL1       -0.0816
     15 N          -0.0111    0.9658    0.0074 N.pl3   1  UNL1       -0.3557
     16 CL         -2.4064   -0.7968    0.0080 Cl      1  UNL1       -0.0816
     17 O          -4.8359    4.9271    0.8251 O.3     1  UNL1       -0.3819
     18 H          -7.9529    3.2775   -3.1421 H       1  UNL1        0.0287
     19 H          -7.4973    4.1965   -4.5968 H       1  UNL1        0.0287
     20 H          -6.2429    3.3933   -3.6223 H       1  UNL1        0.0287
     21 H          -8.2707    6.8326   -2.0847 H       1  UNL1        0.0287
     22 H          -8.6815    6.2049   -3.6988 H       1  UNL1        0.0287
     23 H          -9.1371    5.2859   -2.2441 H       1  UNL1        0.0287
     24 H          -5.0267    5.5643   -3.3985 H       1  UNL1        0.0287
     25 H          -6.2812    6.3675   -4.3730 H       1  UNL1        0.0287
     26 H          -5.8704    6.9952   -2.7588 H       1  UNL1        0.0287
     27 H          -4.5834    4.7399   -1.8213 H       1  UNL1        0.0843
     28 H          -5.4498    3.1933   -1.9807 H       1  UNL1        0.0843
     29 H          -4.5597    1.0666    0.0300 H       1  UNL1        0.0636
     30 H          -2.4774    4.7890    0.0412 H       1  UNL1        0.0636
     31 H           0.0021   -0.0041    0.0020 H       1  UNL1        0.1424
     32 H           0.8223    1.4622    0.0021 H       1  UNL1        0.1424
     33 H          -4.1670    5.5429    0.4957 H       1  UNL1        0.2105
     34 N          -6.6408    4.8214   -1.3680 N.4     1  UNL1        0.2328
     35 H          -7.3604    4.2171   -0.9542 H       1  UNL1        0.2020
     36 H          -6.5443    5.6740   -0.8040 H       1  UNL1        0.2020
@<TRIPOS>UNITY_ATOM_ATTR
34 1
charge 1
@<TRIPOS>BOND
     1     1     2    1
     2     1    18    1
     3     1    19    1
     4     1    20    1
     5     2     3    1
     6     2     4    1
     7     2    34    1
     8     3    21    1
     9     3    22    1
    10     3    23    1
    11     4    24    1
    12     4    25    1
    13     4    26    1
    14     5     6    1
    15     5    27    1
    16     5    28    1
    17     5    34    1
    18     6     7    1
    19     6     8    1
    20     6    17    1
    21     8    13   ar
    22     8     9   ar
    23     9    10   ar
    24     9    29    1
    25    10    11   ar
    26    10    16    1
    27    11    12   ar
    28    11    15    1
    29    12    13   ar
    30    12    14    1
    31    13    30    1
    32    15    31    1
    33    15    32    1
    34    17    33    1
    35    34    35    1
    36    34    36    1
