@<TRIPOS>MOLECULE
ZINC00057401
 46 46 0 0 0
SMALL
GASTEIGER

@<TRIPOS>ATOM
      1 C          -3.6692   -1.9659   -0.0628 C.3     1  UNL1       -0.0361
      2 C          -2.3726   -2.7323   -0.0113 C.ar    1  UNL1       -0.0046
      3 C          -2.3865   -4.1135   -0.0036 C.ar    1  UNL1       -0.0133
      4 C          -1.1934   -4.8187    0.0495 C.ar    1  UNL1        0.1247
      5 C           0.0142   -4.1369    0.0891 C.ar    1  UNL1        0.0003
      6 C           0.0283   -2.7562    0.0757 C.ar    1  UNL1       -0.0121
      7 C          -1.1651   -2.0508    0.0226 C.ar    1  UNL1        0.1350
      8 O          -1.1512   -0.6910    0.0093 O.3     1  UNL1       -0.4257
      9 C          -1.1873   -0.0928   -1.1919 C.2     1  UNL1        0.3092
     10 O          -1.1538   -0.7587   -2.1996 O.2     1  UNL1       -0.2507
     11 C          -1.2695    1.4091   -1.2836 C.3     1  UNL1        0.0336
     12 C           1.3105   -4.9032    0.1473 C.3     1  UNL1       -0.0179
     13 C           2.1645   -4.5541   -1.0733 C.3     1  UNL1       -0.0585
     14 C           2.0674   -4.5289    1.4232 C.3     1  UNL1       -0.0585
     15 O          -1.2073   -6.1782    0.0623 O.3     1  UNL1       -0.4864
     16 C          -2.4862   -6.8144    0.0195 C.3     1  UNL1        0.1291
     17 C          -2.3014   -8.3330    0.0414 C.3     1  UNL1        0.0026
     18 C          -2.6367   -8.4805    2.4349 C.3     1  UNL1       -0.0432
     19 C          -1.2990  -10.1459    1.2949 C.3     1  UNL1       -0.0432
     20 H          -3.9471   -1.7915   -1.1022 H       1  UNL1        0.0279
     21 H          -4.4517   -2.5423    0.4308 H       1  UNL1        0.0279
     22 H          -3.5465   -1.0097    0.4459 H       1  UNL1        0.0279
     23 H          -3.3266   -4.6442   -0.0344 H       1  UNL1        0.0658
     24 H           0.9684   -2.2254    0.1062 H       1  UNL1        0.0658
     25 H          -1.2888    1.7087   -2.3314 H       1  UNL1        0.0342
     26 H          -2.1782    1.7540   -0.7903 H       1  UNL1        0.0342
     27 H          -0.4009    1.8510   -0.7953 H       1  UNL1        0.0342
     28 H           1.1006   -5.9728    0.1500 H       1  UNL1        0.0345
     29 H           2.3745   -3.4846   -1.0759 H       1  UNL1        0.0235
     30 H           3.1021   -5.1084   -1.0312 H       1  UNL1        0.0235
     31 H           1.6253   -4.8208   -1.9822 H       1  UNL1        0.0235
     32 H           1.4590   -4.7775    2.2928 H       1  UNL1        0.0235
     33 H           3.0050   -5.0831    1.4653 H       1  UNL1        0.0235
     34 H           2.2773   -3.4593    1.4205 H       1  UNL1        0.0235
     35 H          -3.0739   -6.5073    0.8846 H       1  UNL1        0.0751
     36 H          -3.0057   -6.5248   -0.8939 H       1  UNL1        0.0751
     37 H          -3.2695   -8.8187   -0.0805 H       1  UNL1        0.0848
     38 H          -1.6405   -8.6304   -0.7728 H       1  UNL1        0.0848
     39 H          -3.5544   -9.0478    2.2798 H       1  UNL1        0.0777
     40 H          -2.1737   -8.7877    3.3726 H       1  UNL1        0.0777
     41 H          -2.8699   -7.4165    2.4762 H       1  UNL1        0.0777
     42 H          -0.5596  -10.2927    0.5076 H       1  UNL1        0.0777
     43 H          -0.8643  -10.4178    2.2568 H       1  UNL1        0.0777
     44 H          -2.1683  -10.7735    1.0986 H       1  UNL1        0.0777
     45 N          -1.6862   -8.7199    1.3286 N.4     1  UNL1        0.2333
     46 H          -0.8461   -8.1497    1.4814 H       1  UNL1        0.2029
@<TRIPOS>UNITY_ATOM_ATTR
45 1
charge 1
@<TRIPOS>BOND
     1     1     2    1
     2     1    20    1
     3     1    21    1
     4     1    22    1
     5     2     7   ar
     6     2     3   ar
     7     3     4   ar
     8     3    23    1
     9     4     5   ar
    10     4    15    1
    11     5     6   ar
    12     5    12    1
    13     6     7   ar
    14     6    24    1
    15     7     8    1
    16     8     9    1
    17     9    10    2
    18     9    11    1
    19    11    25    1
    20    11    26    1
    21    11    27    1
    22    12    13    1
    23    12    14    1
    24    12    28    1
    25    13    29    1
    26    13    30    1
    27    13    31    1
    28    14    32    1
    29    14    33    1
    30    14    34    1
    31    15    16    1
    32    16    17    1
    33    16    35    1
    34    16    36    1
    35    17    37    1
    36    17    38    1
    37    17    45    1
    38    18    39    1
    39    18    40    1
    40    18    41    1
    41    18    45    1
    42    19    42    1
    43    19    43    1
    44    19    44    1
    45    19    45    1
    46    45    46    1
