@<TRIPOS>MOLECULE
ZINC03814199
 55 56 0 0 0
SMALL
GASTEIGER

@<TRIPOS>ATOM
      1 C           2.1116   -0.2461    4.9263 C.3     0  UNK0       -0.0306
      2 C           0.8742   -0.9308    4.3423 C.3     0  UNK0        0.0899
      3 O           1.0086   -1.0246    2.8995 O.3     0  UNK0       -0.4610
      4 C          -0.0000   -1.6043    2.2300 C.2     0  UNK0        0.3560
      5 O          -0.9632   -2.0197    2.8295 O.2     0  UNK0       -0.2444
      6 C           0.0690   -1.7371    0.7304 C.3     0  UNK0        0.0770
      7 H           0.9416   -2.3308    0.4580 H       0  UNK0        0.0969
      8 C           0.1807   -0.3475    0.1000 C.3     0  UNK0        0.0048
      9 C           0.3760   -0.4872   -1.4111 C.3     0  UNK0       -0.0220
     10 C           0.4859    0.8815   -2.0320 C.ar    0  UNK0       -0.0471
     11 C          -0.6497    1.5316   -2.4777 C.ar    0  UNK0       -0.0586
     12 C          -0.5493    2.7889   -3.0432 C.ar    0  UNK0       -0.0615
     13 C           0.6877    3.3923   -3.1716 C.ar    0  UNK0       -0.0617
     14 C           1.8240    2.7400   -2.7307 C.ar    0  UNK0       -0.0615
     15 C           1.7231    1.4845   -2.1612 C.ar    0  UNK0       -0.0586
     16 CA         -1.0147   -3.8618    0.3135 C.3     1  PRO1        0.0530
     17 HA          0.0166   -4.1442    0.1022 H       1  PRO1        0.0947
     18 CB         -1.3973   -4.3397    1.7157 C.3     1  PRO1       -0.0129
     19 C          -1.9282   -4.4997   -0.7013 C.2     1  PRO1        0.2640
     20 O          -2.9317   -3.9218   -1.0617 O.2     1  PRO1       -0.2694
     21 N          -1.6300   -5.7123   -1.2082 N.am    1  PRO1       -0.2887
     22 CD         -0.5070   -6.5683   -0.7844 C.3     1  PRO1        0.0156
     23 CG         -0.9392   -8.0065   -1.1644 C.3     1  PRO1       -0.0351
     24 CB         -1.6849   -7.7642   -2.5033 C.3     1  PRO1       -0.0276
     25 CA         -2.3745   -6.4034   -2.2711 C.3     1  PRO1        0.0656
     26 HA         -3.4077   -6.5577   -1.9598 H       1  PRO1        0.0562
     27 C          -2.3342   -5.5886   -3.5381 C.2     1  PRO1        0.0622
     28 O          -1.7444   -4.5342   -3.5598 O.co2   1  PRO1       -0.5479
     29 H           2.0107   -0.1757    6.0093 H       0  UNK0        0.0262
     30 H           2.9992   -0.8292    4.6812 H       0  UNK0        0.0262
     31 H           2.2062    0.7545    4.5044 H       0  UNK0        0.0262
     32 H          -0.0134   -0.3477    4.5874 H       0  UNK0        0.0694
     33 H           0.7796   -1.9314    4.7641 H       0  UNK0        0.0694
     34 H           1.0331    0.1789    0.5294 H       0  UNK0        0.0329
     35 H          -0.7314    0.2156    0.2979 H       0  UNK0        0.0329
     36 H          -0.4765   -1.0136   -1.8405 H       0  UNK0        0.0315
     37 H           1.2880   -1.0503   -1.6090 H       0  UNK0        0.0315
     38 H          -1.6158    1.0585   -2.3809 H       0  UNK0        0.0620
     39 H          -1.4371    3.2987   -3.3874 H       0  UNK0        0.0618
     40 H           0.7665    4.3735   -3.6159 H       0  UNK0        0.0618
     41 H           2.7905    3.2115   -2.8310 H       0  UNK0        0.0618
     42 H           2.6108    0.9749   -1.8167 H       0  UNK0        0.0620
     43 HB1        -2.3781   -3.9440    1.9794 H       1  PRO1        0.0289
     44 HB2        -1.4285   -5.4291    1.7324 H       1  PRO1        0.0289
     45 HB3        -0.6578   -3.9863    2.4343 H       1  PRO1        0.0289
     46 HD1         0.4027   -6.2922   -1.3176 H       1  PRO1        0.0465
     47 HD2        -0.3541   -6.4882    0.2919 H       1  PRO1        0.0465
     48 HG1        -0.0713   -8.6493   -1.3113 H       1  PRO1        0.0281
     49 HG2        -1.6101   -8.4241   -0.4136 H       1  PRO1        0.0281
     50 HB1        -0.9797   -7.7067   -3.3325 H       1  PRO1        0.0287
     51 HB2        -2.4234   -8.5461   -2.6804 H       1  PRO1        0.0287
     52 N          -1.1556   -2.3955    0.2375 N.4     1  PRO1        0.2457
     53 H1         -1.3183   -2.1210   -0.7384 H       1  PRO1        0.2030
     54 H2         -1.9533   -2.1016    0.8132 H       1  PRO1        0.2030
     55 OXT        -2.9535   -6.0340   -4.6426 O.co2   1  PRO1       -0.5479
@<TRIPOS>UNITY_ATOM_ATTR
52 1
charge 1
55 1
charge -1
@<TRIPOS>BOND
     1     1     2    1
     2     1    29    1
     3     1    30    1
     4     1    31    1
     5     2     3    1
     6     2    32    1
     7     2    33    1
     8     3     4    1
     9     4     5    2
    10     4     6    1
    11     6     7    1
    12     6     8    1
    13     6    52    1
    14     8     9    1
    15     8    34    1
    16     8    35    1
    17     9    10    1
    18     9    36    1
    19     9    37    1
    20    10    15   ar
    21    10    11   ar
    22    11    12   ar
    23    11    38    1
    24    12    13   ar
    25    12    39    1
    26    13    14   ar
    27    13    40    1
    28    14    15   ar
    29    14    41    1
    30    15    42    1
    31    16    17    1
    32    16    18    1
    33    16    19    1
    34    16    52    1
    35    18    43    1
    36    18    44    1
    37    18    45    1
    38    19    20    2
    39    19    21   am
    40    21    25    1
    41    21    22    1
    42    22    23    1
    43    22    46    1
    44    22    47    1
    45    23    24    1
    46    23    48    1
    47    23    49    1
    48    24    25    1
    49    24    50    1
    50    24    51    1
    51    25    26    1
    52    25    27    1
    53    27    28   ar
    54    27    55   ar
    55    52    53    1
    56    52    54    1
