@<TRIPOS>MOLECULE
ZINC00597358
 53 57 0 0 0
SMALL
GASTEIGER

@<TRIPOS>ATOM
      1 C          -4.0029    1.2015   -2.5059 C.3     1  UNL1       -0.0643
      2 C          -4.0319    2.3990   -1.5540 C.3     1  UNL1       -0.0411
      3 C          -3.8028    1.9159   -0.1187 C.3     1  UNL1        0.0396
      4 C          -4.9063    0.9510    0.2938 C.3     1  UNL1       -0.0335
      5 C          -6.1009    1.6866    0.8936 C.3     1  UNL1       -0.0115
      6 C          -6.1791    3.1463    0.4660 C.3     1  UNL1       -0.0312
      7 C          -3.7809    3.0972    0.8528 C.3     1  UNL1        0.0303
      8 H          -3.6173    2.7030    1.8650 H       1  UNL1        0.0928
      9 C          -2.5649    3.9048    0.4859 C.ar    1  UNL1        0.0770
     10 C          -2.4948    5.2431    0.4723 C.ar    1  UNL1       -0.0080
     11 C          -1.1515    5.5766    0.0854 C.ar    1  UNL1        0.0040
     12 C          -0.4915    6.7990   -0.0775 C.ar    1  UNL1       -0.0523
     13 C           0.8203    6.7588   -0.4744 C.ar    1  UNL1       -0.0611
     14 C           1.4734    5.5617   -0.7133 C.ar    1  UNL1       -0.0598
     15 C           0.8492    4.3365   -0.5615 C.ar    1  UNL1       -0.0372
     16 C          -0.4805    4.3339   -0.1435 C.ar    1  UNL1        0.0547
     17 N          -1.3672    3.3338    0.1041 N.ar    1  UNL1       -0.3018
     18 C          -1.2996    1.9298    0.0187 C.2     1  UNL1        0.1286
     19 C          -2.4518    1.2421   -0.0813 C.2     1  UNL1       -0.0412
     20 C          -0.0144    1.2109    0.0087 C.2     1  UNL1        0.3559
     21 O           0.0122    0.0170   -0.2156 O.2     1  UNL1       -0.2433
     22 O           1.1329    1.8782    0.2428 O.3     1  UNL1       -0.4604
     23 C           2.3625    1.1067    0.2113 C.3     1  UNL1        0.0900
     24 C           3.5501    2.0279    0.4974 C.3     1  UNL1       -0.0306
     25 C          -3.7273    6.0388    0.8287 C.3     1  UNL1        0.0152
     26 C          -4.9181    5.2260    0.2813 C.3     1  UNL1       -0.0271
     27 H          -3.0334    0.7077   -2.4391 H       1  UNL1        0.0230
     28 H          -4.7886    0.4984   -2.2294 H       1  UNL1        0.0230
     29 H          -4.1659    1.5453   -3.5273 H       1  UNL1        0.0230
     30 H          -5.0013    2.8928   -1.6208 H       1  UNL1        0.0273
     31 H          -3.2462    3.1021   -1.8305 H       1  UNL1        0.0273
     32 H          -5.2337    0.3720   -0.5784 H       1  UNL1        0.0277
     33 H          -4.5109    0.2427    1.0337 H       1  UNL1        0.0277
     34 H          -6.0461    1.6370    1.9852 H       1  UNL1        0.0317
     35 H          -7.0226    1.1816    0.5823 H       1  UNL1        0.0317
     36 H          -7.0542    3.5996    0.9580 H       1  UNL1        0.0814
     37 H          -6.3465    3.2127   -0.6056 H       1  UNL1        0.0814
     38 H          -0.9947    7.7374    0.1043 H       1  UNL1        0.0624
     39 H           1.3583    7.6855   -0.6045 H       1  UNL1        0.0618
     40 H           2.5055    5.5842   -1.0319 H       1  UNL1        0.0618
     41 H           1.3821    3.4199   -0.7654 H       1  UNL1        0.0638
     42 H          -2.4145    0.1701   -0.1518 H       1  UNL1        0.0602
     43 H           2.3195    0.3236    0.9683 H       1  UNL1        0.0695
     44 H           2.4825    0.6543   -0.7731 H       1  UNL1        0.0695
     45 H           3.5931    2.8110   -0.2596 H       1  UNL1        0.0262
     46 H           3.4301    2.4803    1.4818 H       1  UNL1        0.0262
     47 H           4.4732    1.4487    0.4738 H       1  UNL1        0.0262
     48 H          -3.8100    6.1424    1.9110 H       1  UNL1        0.0366
     49 H          -3.6938    7.0208    0.3568 H       1  UNL1        0.0366
     50 H          -5.8393    5.7624    0.5138 H       1  UNL1        0.0818
     51 H          -4.8241    5.1527   -0.8015 H       1  UNL1        0.0818
     52 N          -5.0236    3.9025    0.9677 N.4     1  UNL1        0.2426
     53 H          -5.1792    4.0860    1.9659 H       1  UNL1        0.2041
@<TRIPOS>UNITY_ATOM_ATTR
52 1
charge 1
@<TRIPOS>BOND
     1     1     2    1
     2     1    27    1
     3     1    28    1
     4     1    29    1
     5     2     3    1
     6     2    30    1
     7     2    31    1
     8     3     7    1
     9     3    19    1
    10     3     4    1
    11     4     5    1
    12     4    32    1
    13     4    33    1
    14     5     6    1
    15     5    34    1
    16     5    35    1
    17     6    36    1
    18     6    37    1
    19     6    52    1
    20     7     8    1
    21     7     9    1
    22     7    52    1
    23     9    17   ar
    24     9    10   ar
    25    10    11   ar
    26    10    25    1
    27    11    16   ar
    28    11    12   ar
    29    12    13   ar
    30    12    38    1
    31    13    14   ar
    32    13    39    1
    33    14    15   ar
    34    14    40    1
    35    15    16   ar
    36    15    41    1
    37    16    17   ar
    38    17    18    1
    39    18    19    2
    40    18    20    1
    41    19    42    1
    42    20    21    2
    43    20    22    1
    44    22    23    1
    45    23    24    1
    46    23    43    1
    47    23    44    1
    48    24    45    1
    49    24    46    1
    50    24    47    1
    51    25    26    1
    52    25    48    1
    53    25    49    1
    54    26    50    1
    55    26    51    1
    56    26    52    1
    57    52    53    1
