@<TRIPOS>MOLECULE
ZINC11616250
 54 57 0 0 0
SMALL
GASTEIGER

@<TRIPOS>ATOM
      1 C          -0.4747    3.9384    1.6801 C.3     1  UNL1       -0.0567
      2 C          -1.4286    2.7987    1.3165 C.3     1  UNL1        0.0001
      3 C          -2.1377    3.0962   -0.0050 C.3     1  UNL1       -0.0445
      4 C          -1.1560    2.9621   -1.1683 C.3     1  UNL1       -0.0488
      5 C          -0.7256    1.4952   -1.2618 C.3     1  UNL1       -0.0314
      6 H          -1.6190    0.8829   -1.3845 H       1  UNL1        0.0309
      7 C          -0.0127    1.0858    0.0080 C.3     1  UNL1       -0.0340
      8 H           0.0021   -0.0041    0.0020 H       1  UNL1        0.0307
      9 C          -0.7049    1.4768    1.2722 C.3     1  UNL1       -0.0298
     10 H           0.0509    1.5155    2.0567 H       1  UNL1        0.0310
     11 C          -1.7493    0.4232    1.7313 C.3     1  UNL1       -0.0467
     12 C          -2.4667    1.1800    2.8813 C.3     1  UNL1       -0.0229
     13 C          -2.5274    2.6441    2.3977 C.3     1  UNL1        0.0751
     14 C          -2.2520    3.5946    3.5646 C.3     1  UNL1       -0.0055
     15 C          -3.2558    3.3478    4.6611 C.2     1  UNL1       -0.0884
     16 C          -2.8460    3.0771    5.8756 C.2     1  UNL1       -0.1025
     17 O          -3.8111    2.9207    1.8340 O.3     1  UNL1       -0.3877
     18 C           1.4497    1.5168   -0.0036 C.3     1  UNL1       -0.0460
     19 C           2.2167    0.6759   -1.0268 C.3     1  UNL1       -0.0312
     20 C           1.2802    0.3499   -2.1782 C.2     1  UNL1       -0.0701
     21 C           1.4893   -0.7551   -2.8357 C.2     1  UNL1       -0.0845
     22 C           0.6452   -1.1639   -4.0108 C.3     1  UNL1       -0.0345
     23 C           0.1358    0.1106   -4.6961 C.3     1  UNL1       -0.0491
     24 C          -0.6736    0.9078   -3.6765 C.3     1  UNL1       -0.0460
     25 C           0.1783    1.3178   -2.4859 C.3     1  UNL1       -0.0168
     26 H           0.6273    2.2863   -2.7063 H       1  UNL1        0.0348
     27 H          -1.0366    4.8681    1.7691 H       1  UNL1        0.0236
     28 H           0.0121    3.7158    2.6296 H       1  UNL1        0.0236
     29 H           0.2800    4.0432    0.9006 H       1  UNL1        0.0236
     30 H          -2.5345    4.1111    0.0180 H       1  UNL1        0.0272
     31 H          -2.9584    2.3920   -0.1415 H       1  UNL1        0.0272
     32 H          -0.2839    3.5907   -0.9882 H       1  UNL1        0.0268
     33 H          -1.6411    3.2631   -2.0968 H       1  UNL1        0.0268
     34 H          -1.2693   -0.4832    2.1005 H       1  UNL1        0.0269
     35 H          -2.4435    0.1931    0.9231 H       1  UNL1        0.0269
     36 H          -1.8897    1.1071    3.8033 H       1  UNL1        0.0293
     37 H          -3.4721    0.7853    3.0280 H       1  UNL1        0.0293
     38 H          -1.2463    3.4191    3.9465 H       1  UNL1        0.0335
     39 H          -2.3354    4.6256    3.2209 H       1  UNL1        0.0335
     40 H          -4.3131    3.3942    4.4458 H       1  UNL1        0.0567
     41 H          -3.5654    2.9002    6.6614 H       1  UNL1        0.0532
     42 H          -1.7887    3.0307    6.0909 H       1  UNL1        0.0532
     43 H          -4.5420    2.8406    2.4622 H       1  UNL1        0.2102
     44 H           1.5163    2.5703   -0.2753 H       1  UNL1        0.0271
     45 H           1.8808    1.3678    0.9863 H       1  UNL1        0.0271
     46 H           3.0724    1.2399   -1.3980 H       1  UNL1        0.0310
     47 H           2.5602   -0.2471   -0.5598 H       1  UNL1        0.0310
     48 H           2.2976   -1.4007   -2.5255 H       1  UNL1        0.0572
     49 H           1.2456   -1.7440   -4.7115 H       1  UNL1        0.0307
     50 H          -0.1996   -1.7610   -3.6675 H       1  UNL1        0.0307
     51 H           0.9813    0.7059   -5.0411 H       1  UNL1        0.0268
     52 H          -0.4971   -0.1548   -5.5429 H       1  UNL1        0.0268
     53 H          -1.0691    1.8028   -4.1569 H       1  UNL1        0.0271
     54 H          -1.5043    0.2961   -3.3244 H       1  UNL1        0.0271
@<TRIPOS>BOND
     1     1     2    1
     2     1    27    1
     3     1    28    1
     4     1    29    1
     5     2     9    1
     6     2    13    1
     7     2     3    1
     8     3     4    1
     9     3    30    1
    10     3    31    1
    11     4     5    1
    12     4    32    1
    13     4    33    1
    14     5     6    1
    15     5    25    1
    16     5     7    1
    17     7     8    1
    18     7     9    1
    19     7    18    1
    20     9    10    1
    21     9    11    1
    22    11    12    1
    23    11    34    1
    24    11    35    1
    25    12    13    1
    26    12    36    1
    27    12    37    1
    28    13    14    1
    29    13    17    1
    30    14    15    1
    31    14    38    1
    32    14    39    1
    33    15    16    2
    34    15    40    1
    35    16    41    1
    36    16    42    1
    37    17    43    1
    38    18    19    1
    39    18    44    1
    40    18    45    1
    41    19    20    1
    42    19    46    1
    43    19    47    1
    44    20    25    1
    45    20    21    2
    46    21    22    1
    47    21    48    1
    48    22    23    1
    49    22    49    1
    50    22    50    1
    51    23    24    1
    52    23    51    1
    53    23    52    1
    54    24    25    1
    55    24    53    1
    56    24    54    1
    57    25    26    1
