@<TRIPOS>MOLECULE
ZINC01690604
 25 25 0 0 0
SMALL
GASTEIGER

@<TRIPOS>ATOM
      1 C          -0.1755    1.0519   -2.4354 C.3     1  UNL1       -0.0214
      2 C          -0.7955    1.5269   -1.1198 C.3     1  UNL1       -0.0232
      3 H          -0.7938    2.6165   -1.0898 H       1  UNL1        0.0850
      4 C          -2.2343    1.0162   -1.0204 C.3     1  UNL1        0.0152
      5 C          -2.8848    1.5844    0.2145 C.ar    1  UNL1       -0.0418
      6 C          -2.8089    0.8982    1.4125 C.ar    1  UNL1       -0.0549
      7 C          -3.3995    1.4196    2.5472 C.ar    1  UNL1       -0.0199
      8 C          -4.0786    2.6276    2.4816 C.ar    1  UNL1        0.1169
      9 C          -4.1582    3.3114    1.2771 C.ar    1  UNL1       -0.0199
     10 C          -3.5615    2.7882    0.1464 C.ar    1  UNL1       -0.0549
     11 O          -4.6653    3.1400    3.5952 O.3     1  UNL1       -0.5068
     12 H          -0.1772   -0.0377   -2.4654 H       1  UNL1        0.0284
     13 H          -0.7571    1.4393   -3.2719 H       1  UNL1        0.0284
     14 H           0.8496    1.4157   -2.5062 H       1  UNL1        0.0284
     15 H          -2.7929    1.3298   -1.9023 H       1  UNL1        0.0368
     16 H          -2.2303   -0.0722   -0.9609 H       1  UNL1        0.0368
     17 H          -2.2838   -0.0443    1.4620 H       1  UNL1        0.0621
     18 H          -3.3358    0.8856    3.4838 H       1  UNL1        0.0654
     19 H          -4.6860    4.2521    1.2236 H       1  UNL1        0.0654
     20 H          -3.6232    3.3202   -0.7915 H       1  UNL1        0.0621
     21 H          -5.5814    2.8578    3.7225 H       1  UNL1        0.2921
     22 H           0.0021   -0.0041    0.0020 H       1  UNL1        0.1997
     23 H           0.9253    1.3792    0.0006 H       1  UNL1        0.1997
     24 N          -0.0252    1.0139    0.0269 N.4     1  UNL1        0.2208
     25 H          -0.4761    1.3157    0.8986 H       1  UNL1        0.1997
@<TRIPOS>UNITY_ATOM_ATTR
24 1
charge 1
@<TRIPOS>BOND
     1     1     2    1
     2     1    12    1
     3     1    13    1
     4     1    14    1
     5     2     3    1
     6     2     4    1
     7     2    24    1
     8     4     5    1
     9     4    15    1
    10     4    16    1
    11     5    10   ar
    12     5     6   ar
    13     6     7   ar
    14     6    17    1
    15     7     8   ar
    16     7    18    1
    17     8     9   ar
    18     8    11    1
    19     9    10   ar
    20     9    19    1
    21    10    20    1
    22    11    21    1
    23    22    24    1
    24    23    24    1
    25    24    25    1
