@<TRIPOS>MOLECULE
ZINC00608117
 58 59 0 0 0
SMALL
GASTEIGER

@<TRIPOS>ATOM
      1 C           5.6795    1.3508   -2.4641 C.3     1  UNL1       -0.0594
      2 C           5.7563    2.4940   -1.4501 C.3     1  UNL1       -0.0021
      3 C           6.0997    1.9295   -0.0702 C.3     1  UNL1        0.0497
      4 C           5.0621    0.8759    0.3225 C.3     1  UNL1        0.1422
      5 O           3.7445    1.4848    0.3603 O.3     1  UNL1       -0.4548
      6 C           2.7109    0.6864    0.6920 C.2     1  UNL1        0.3396
      7 O           2.9053   -0.4865    0.9427 O.2     1  UNL1       -0.2450
      8 C           1.3437    1.2362    0.7506 C.ar    1  UNL1        0.0661
      9 C           0.2707    0.4092    1.0945 C.ar    1  UNL1       -0.0021
     10 C          -1.0102    0.9260    1.1440 C.ar    1  UNL1        0.1660
     11 C          -1.2309    2.2715    0.8616 C.ar    1  UNL1        0.2035
     12 C          -0.1637    3.0978    0.5191 C.ar    1  UNL1        0.1660
     13 C           1.1186    2.5852    0.4629 C.ar    1  UNL1       -0.0021
     14 O          -0.3834    4.4105    0.2393 O.3     1  UNL1       -0.4913
     15 C           0.7568    5.2001   -0.1051 C.3     1  UNL1        0.0790
     16 O          -2.4905    2.7782    0.9161 O.3     1  UNL1       -0.4885
     17 C          -3.2616    2.7303   -0.2861 C.3     1  UNL1        0.0791
     18 O          -2.0554    0.1206    1.4736 O.3     1  UNL1       -0.4913
     19 C          -1.7561   -1.2479    1.7559 C.3     1  UNL1        0.0790
     20 C           7.4669    1.2969   -0.1122 C.ar    1  UNL1        0.0065
     21 C           7.7415    0.1919    0.6717 C.ar    1  UNL1       -0.0529
     22 C           8.9942   -0.3910    0.6299 C.ar    1  UNL1       -0.0613
     23 C           9.9751    0.1366   -0.1889 C.ar    1  UNL1       -0.0617
     24 C           9.7020    1.2448   -0.9688 C.ar    1  UNL1       -0.0613
     25 C           8.4480    1.8251   -0.9303 C.ar    1  UNL1       -0.0529
     26 C           6.4772    2.5206    2.2473 C.3     1  UNL1       -0.0424
     27 C           6.9660    4.1187    0.4953 C.3     1  UNL1       -0.0424
     28 H           6.6061    0.7776   -2.4363 H       1  UNL1        0.0232
     29 H           4.8417    0.6997   -2.2146 H       1  UNL1        0.0232
     30 H           5.5358    1.7609   -3.4638 H       1  UNL1        0.0232
     31 H           4.7944    3.0047   -1.4047 H       1  UNL1        0.0325
     32 H           6.5284    3.1999   -1.7563 H       1  UNL1        0.0325
     33 H           5.3056    0.4752    1.3065 H       1  UNL1        0.0762
     34 H           5.0685    0.0689   -0.4102 H       1  UNL1        0.0762
     35 H           0.4418   -0.6337    1.3169 H       1  UNL1        0.0663
     36 H           1.9459    3.2264    0.1966 H       1  UNL1        0.0663
     37 H           1.4675    5.1918    0.7214 H       1  UNL1        0.0660
     38 H           1.2300    4.7861   -0.9954 H       1  UNL1        0.0660
     39 H           0.4425    6.2248   -0.3038 H       1  UNL1        0.0660
     40 H          -2.7524    3.2948   -1.0671 H       1  UNL1        0.0660
     41 H          -3.3763    1.6937   -0.6031 H       1  UNL1        0.0660
     42 H          -4.2443    3.1657   -0.1050 H       1  UNL1        0.0660
     43 H          -1.2969   -1.7074    0.8807 H       1  UNL1        0.0660
     44 H          -1.0671   -1.3027    2.5988 H       1  UNL1        0.0660
     45 H          -2.6761   -1.7773    2.0037 H       1  UNL1        0.0660
     46 H           6.9763   -0.2180    1.3142 H       1  UNL1        0.0622
     47 H           9.2075   -1.2570    1.2389 H       1  UNL1        0.0618
     48 H          10.9547   -0.3172   -0.2196 H       1  UNL1        0.0618
     49 H          10.4684    1.6571   -1.6085 H       1  UNL1        0.0618
     50 H           8.2347    2.6909   -1.5396 H       1  UNL1        0.0622
     51 H           7.5098    2.1726    2.2207 H       1  UNL1        0.0778
     52 H           6.3837    3.3256    2.9762 H       1  UNL1        0.0778
     53 H           5.8231    1.6960    2.5309 H       1  UNL1        0.0778
     54 H           6.5688    4.5674   -0.4152 H       1  UNL1        0.0778
     55 H           7.0085    4.8713    1.2826 H       1  UNL1        0.0778
     56 H           7.9684    3.7357    0.3042 H       1  UNL1        0.0778
     57 N           6.0661    3.0259    0.9206 N.4     1  UNL1        0.2409
     58 H           5.1077    3.3887    0.9842 H       1  UNL1        0.2038
@<TRIPOS>UNITY_ATOM_ATTR
57 1
charge 1
@<TRIPOS>BOND
     1     1     2    1
     2     1    28    1
     3     1    29    1
     4     1    30    1
     5     2     3    1
     6     2    31    1
     7     2    32    1
     8     3     4    1
     9     3    20    1
    10     3    57    1
    11     4     5    1
    12     4    33    1
    13     4    34    1
    14     5     6    1
    15     6     7    2
    16     6     8    1
    17     8    13   ar
    18     8     9   ar
    19     9    10   ar
    20     9    35    1
    21    10    11   ar
    22    10    18    1
    23    11    12   ar
    24    11    16    1
    25    12    13   ar
    26    12    14    1
    27    13    36    1
    28    14    15    1
    29    15    37    1
    30    15    38    1
    31    15    39    1
    32    16    17    1
    33    17    40    1
    34    17    41    1
    35    17    42    1
    36    18    19    1
    37    19    43    1
    38    19    44    1
    39    19    45    1
    40    20    25   ar
    41    20    21   ar
    42    21    22   ar
    43    21    46    1
    44    22    23   ar
    45    22    47    1
    46    23    24   ar
    47    23    48    1
    48    24    25   ar
    49    24    49    1
    50    25    50    1
    51    26    51    1
    52    26    52    1
    53    26    53    1
    54    26    57    1
    55    27    54    1
    56    27    55    1
    57    27    56    1
    58    27    57    1
    59    57    58    1
