@<TRIPOS>MOLECULE
ZINC11616248
 31 33 0 0 0
SMALL
GASTEIGER

@<TRIPOS>ATOM
      1 C          -4.0752   -0.4813    0.0179 C.ar    1  UNL1        0.1003
      2 N          -2.7784   -0.3726    0.0124 N.ar    1  UNL1       -0.2306
      3 C          -2.4358    0.9382    0.0187 C.ar    1  UNL1        0.1474
      4 C          -1.2187    1.6414    0.0168 C.ar    1  UNL1        0.1487
      5 N          -1.2544    2.9696    0.0297 N.ar    1  UNL1       -0.2006
      6 C          -2.4033    3.6233    0.0348 C.ar    1  UNL1        0.2264
      7 N          -3.5672    3.0061    0.0366 N.ar    1  UNL1       -0.1976
      8 C          -3.6297    1.6783    0.0289 C.ar    1  UNL1        0.1688
      9 N          -4.6461    0.7567    0.0281 N.ar    1  UNL1       -0.2878
     10 C1*        -6.0815    1.0493    0.0372 C.3     1  UNL1        0.1408
     11 H1*        -6.2819    1.9396   -0.5588 H       1  UNL1        0.0840
     12 C2*        -6.5625    1.2686    1.4847 C.3     1  UNL1        0.0213
     13 C3*        -7.5871    0.1322    1.7203 C.3     1  UNL1        0.0876
     14 H3*        -7.4743   -0.2926    2.7178 H       1  UNL1        0.0621
     15 C4*        -7.1868   -0.8966    0.6324 C.3     1  UNL1        0.1100
     16 H4*        -6.3429   -1.5001    0.9667 H       1  UNL1        0.0646
     17 O4*        -6.8119   -0.0705   -0.4908 O.3     1  UNL1       -0.3484
     18 C5*        -8.3759   -1.7893    0.2715 C.3     1  UNL1        0.0729
     19 O5*        -7.9516   -2.8005   -0.6447 O.3     1  UNL1       -0.3924
     20 O3*        -8.9221    0.5986    1.5146 O.3     1  UNL1       -0.3890
     21 CL         -2.3775    5.3591    0.0458 Cl      1  UNL1       -0.0409
     22 N          -0.0111    0.9658    0.0074 N.pl3   1  UNL1       -0.3413
     23 H          -4.6188   -1.4145    0.0148 H       1  UNL1        0.1030
     24 H2*1       -5.7286    1.1809    2.1812 H       1  UNL1        0.0335
     25 H2*2       -7.0429    2.2420    1.5838 H       1  UNL1        0.0335
     26 H5*1       -8.7657   -2.2580    1.1751 H       1  UNL1        0.0584
     27 H5*2       -9.1568   -1.1851   -0.1903 H       1  UNL1        0.0584
     28 H5*        -8.6557   -3.4045   -0.9176 H       1  UNL1        0.2095
     29 H3*        -9.1876    1.3085    2.1151 H       1  UNL1        0.2099
     30 H           0.0554    0.3907    0.8227 H       1  UNL1        0.1438
     31 H           0.8223    1.4622    0.0021 H       1  UNL1        0.1438
@<TRIPOS>BOND
     1     1     9   ar
     2     1     2   ar
     3     1    23    1
     4     2     3   ar
     5     3     8   ar
     6     3     4   ar
     7     4     5   ar
     8     4    22    1
     9     5     6   ar
    10     6     7   ar
    11     6    21    1
    12     7     8   ar
    13     8     9   ar
    14     9    10    1
    15    10    11    1
    16    10    17    1
    17    10    12    1
    18    12    13    1
    19    12    24    1
    20    12    25    1
    21    13    14    1
    22    13    15    1
    23    13    20    1
    24    15    16    1
    25    15    17    1
    26    15    18    1
    27    18    19    1
    28    18    26    1
    29    18    27    1
    30    19    28    1
    31    20    29    1
    32    22    30    1
    33    22    31    1
