@<TRIPOS>MOLECULE
ZINC03831203
 68 72 0 0 0
SMALL
GASTEIGER

@<TRIPOS>ATOM
      1 C           4.5161   -2.5066    7.3013 C.ar    1  UNL1       -0.0428
      2 C           3.2875   -1.9964    6.9201 C.ar    1  UNL1       -0.0449
      3 C           2.9176   -2.0938    5.5730 C.ar    1  UNL1        0.0770
      4 C           3.7958   -2.7034    4.6752 C.ar    1  UNL1        0.0415
      5 N           4.9569   -3.1687    5.0861 N.ar    1  UNL1       -0.2624
      6 C           5.3316   -3.0908    6.3490 C.ar    1  UNL1        0.0276
      7 C           1.6176   -1.5658    5.1109 C.2     1  UNL1        0.3407
      8 O           0.8591   -1.0418    5.9019 O.2     1  UNL1       -0.2449
      9 O           1.2733   -1.6655    3.8124 O.3     1  UNL1       -0.4584
     10 C          -0.0189   -1.1252    3.4297 C.3     1  UNL1        0.1226
     11 C          -0.2325   -1.3287    1.9284 C.3     1  UNL1        0.1366
     12 H          -0.0798   -2.3750    1.6636 H       1  UNL1        0.0670
     13 C          -1.6563   -0.8731    1.5211 C.3     1  UNL1        0.1745
     14 H          -2.3786   -1.6792    1.6497 H       1  UNL1        0.0801
     15 C          -1.4428   -0.5475    0.0176 C.3     1  UNL1        0.1991
     16 H          -2.1472    0.2135   -0.3183 H       1  UNL1        0.0829
     17 C           0.0021   -0.0041    0.0020 C.3     1  UNL1        0.2446
     18 O           0.6610   -0.4876    1.1783 O.3     1  UNL1       -0.3325
     19 C           0.7321   -0.5062   -1.2453 C.3     1  UNL1        0.1502
     20 O           2.0908    0.0057   -1.2499 O.3     1  UNL1       -0.4556
     21 C           2.8734   -0.3462   -2.2884 C.2     1  UNL1        0.3408
     22 O           2.4328   -1.0610   -3.1661 O.2     1  UNL1       -0.2449
     23 C           4.2674    0.1373   -2.3598 C.ar    1  UNL1        0.0770
     24 C           5.0916   -0.2212   -3.4342 C.ar    1  UNL1       -0.0449
     25 C           6.3889    0.2587   -3.4538 C.ar    1  UNL1       -0.0428
     26 C           6.8269    1.0694   -2.4217 C.ar    1  UNL1        0.0276
     27 N           6.0282    1.3909   -1.4220 N.ar    1  UNL1       -0.2624
     28 C           4.7840    0.9639   -1.3608 C.ar    1  UNL1        0.0415
     29 O          -0.0173    1.4248    0.0099 O.3     1  UNL1       -0.3592
     30 O          -1.5532   -1.7454   -0.7955 O.3     1  UNL1       -0.4484
     31 C          -1.8931   -1.5779   -2.0882 C.2     1  UNL1        0.3412
     32 O          -2.0918   -0.4617   -2.5243 O.2     1  UNL1       -0.2449
     33 C          -2.0241   -2.7517   -2.9756 C.ar    1  UNL1        0.0770
     34 C          -2.3825   -2.5916   -4.3202 C.ar    1  UNL1       -0.0449
     35 C          -2.4862   -3.7226   -5.1101 C.ar    1  UNL1       -0.0428
     36 C          -2.2459   -4.9646   -4.5495 C.ar    1  UNL1        0.0276
     37 N          -1.9152   -5.0857   -3.2780 N.ar    1  UNL1       -0.2624
     38 C          -1.7984   -4.0395   -2.4870 C.ar    1  UNL1        0.0415
     39 O          -2.0598    0.3096    2.2605 O.3     1  UNL1       -0.4511
     40 C          -2.8473    0.1190    3.3366 C.2     1  UNL1        0.3411
     41 O          -3.1877   -1.0045    3.6488 O.2     1  UNL1       -0.2449
     42 C          -3.2970    1.2762    4.1371 C.ar    1  UNL1        0.0770
     43 C          -4.1208    1.0921    5.2550 C.ar    1  UNL1       -0.0449
     44 C          -4.5093    2.2084    5.9739 C.ar    1  UNL1       -0.0428
     45 C          -4.0854    3.4598    5.5632 C.ar    1  UNL1        0.0276
     46 N          -3.3140    3.6037    4.5027 N.ar    1  UNL1       -0.2624
     47 C          -2.9131    2.5722    3.7890 C.ar    1  UNL1        0.0415
     48 H           4.8349   -2.4490    8.3315 H       1  UNL1        0.0633
     49 H           2.6307   -1.5354    7.6430 H       1  UNL1        0.0627
     50 H           3.5224   -2.7902    3.6340 H       1  UNL1        0.0838
     51 H           6.2910   -3.4894    6.6438 H       1  UNL1        0.0829
     52 H          -0.0500   -0.0602    3.6600 H       1  UNL1        0.0725
     53 H          -0.8057   -1.6394    3.9816 H       1  UNL1        0.0725
     54 H           0.7544   -1.5960   -1.2392 H       1  UNL1        0.0753
     55 H           0.2098   -0.1585   -2.1366 H       1  UNL1        0.0753
     56 H           4.7235   -0.8556   -4.2270 H       1  UNL1        0.0627
     57 H           7.0531    0.0028   -4.2661 H       1  UNL1        0.0633
     58 H           7.8391    1.4456   -2.4348 H       1  UNL1        0.0829
     59 H           4.1592    1.2525   -0.5284 H       1  UNL1        0.0838
     60 H           0.8606    1.8301    0.0037 H       1  UNL1        0.2130
     61 H          -2.5693   -1.6103   -4.7307 H       1  UNL1        0.0627
     62 H          -2.7565   -3.6375   -6.1522 H       1  UNL1        0.0633
     63 H          -2.3303   -5.8494   -5.1629 H       1  UNL1        0.0829
     64 H          -1.5261   -4.1791   -1.4512 H       1  UNL1        0.0838
     65 H          -4.4411    0.1039    5.5503 H       1  UNL1        0.0627
     66 H          -5.1405    2.1045    6.8441 H       1  UNL1        0.0633
     67 H          -4.3907    4.3332    6.1203 H       1  UNL1        0.0829
     68 H          -2.2821    2.7303    2.9269 H       1  UNL1        0.0838
@<TRIPOS>BOND
     1     1     6   ar
     2     1     2   ar
     3     1    48    1
     4     2     3   ar
     5     2    49    1
     6     3     4   ar
     7     3     7    1
     8     4     5   ar
     9     4    50    1
    10     5     6   ar
    11     6    51    1
    12     7     8    2
    13     7     9    1
    14     9    10    1
    15    10    11    1
    16    10    52    1
    17    10    53    1
    18    11    12    1
    19    11    18    1
    20    11    13    1
    21    13    14    1
    22    13    15    1
    23    13    39    1
    24    15    16    1
    25    15    17    1
    26    15    30    1
    27    17    18    1
    28    17    19    1
    29    17    29    1
    30    19    20    1
    31    19    54    1
    32    19    55    1
    33    20    21    1
    34    21    22    2
    35    21    23    1
    36    23    28   ar
    37    23    24   ar
    38    24    25   ar
    39    24    56    1
    40    25    26   ar
    41    25    57    1
    42    26    27   ar
    43    26    58    1
    44    27    28   ar
    45    28    59    1
    46    29    60    1
    47    30    31    1
    48    31    32    2
    49    31    33    1
    50    33    38   ar
    51    33    34   ar
    52    34    35   ar
    53    34    61    1
    54    35    36   ar
    55    35    62    1
    56    36    37   ar
    57    36    63    1
    58    37    38   ar
    59    38    64    1
    60    39    40    1
    61    40    41    2
    62    40    42    1
    63    42    47   ar
    64    42    43   ar
    65    43    44   ar
    66    43    65    1
    67    44    45   ar
    68    44    66    1
    69    45    46   ar
    70    45    67    1
    71    46    47   ar
    72    47    68    1
