@<TRIPOS>MOLECULE
ZINC03830390
 38 40 0 0 0
SMALL
GASTEIGER

@<TRIPOS>ATOM
      1 C          -0.9196    5.7446   -0.8392 C.ar    1  UNL1       -0.0617
      2 C          -2.0378    5.0286   -1.2235 C.ar    1  UNL1       -0.0613
      3 C          -1.9772    3.6509   -1.3190 C.ar    1  UNL1       -0.0528
      4 C          -0.7981    2.9893   -1.0311 C.ar    1  UNL1        0.0091
      5 C           0.3188    3.7049   -0.6421 C.ar    1  UNL1       -0.0528
      6 C           0.2593    5.0830   -0.5504 C.ar    1  UNL1       -0.0613
      7 CA         -0.7321    1.4874   -1.1353 C.3     1  UNL1        0.0789
      8 HA         -1.7405    1.0756   -1.0947 H       1  UNL1        0.1002
      9 C          -0.0844    1.1024   -2.4404 C.2     1  UNL1        0.2665
     10 O           1.0846    0.7802   -2.4655 O.2     1  UNL1       -0.2692
     11 N          -0.8042    1.1161   -3.5798 N.am    1  UNL1       -0.2968
     12 CA         -0.1746    0.7418   -4.8486 C.3     1  UNL1        0.1285
     13 HA          0.6802    0.0794   -4.7127 H       1  UNL1        0.0622
     14 C          -1.1654    0.2394   -5.8859 C.3     1  UNL1        0.1041
     15 H          -0.8343   -0.6004   -6.4968 H       1  UNL1        0.0644
     16 N          -0.9669    1.6134   -6.4586 N.am    1  UNL1       -0.2523
     17 C           0.1225    1.9263   -5.7411 C.2     1  UNL1        0.2439
     18 O           0.9761    2.7869   -5.7878 O.2     1  UNL1       -0.2731
     19 CA         -1.8218    2.2595   -7.3761 C.2     1  UNL1        0.0749
     20 C          -3.0773    1.8604   -7.5238 C.2     1  UNL1        0.0514
     21 C          -3.7736    0.7195   -6.8560 C.3     1  UNL1        0.0331
     22 S          -2.9076    0.1875   -5.3467 S.3     1  UNL1       -0.1300
     23 CL         -4.0372    2.7836   -8.6373 Cl      1  UNL1       -0.0854
     24 C          -1.3155    3.3855   -8.1763 C.2     1  UNL1        0.0871
     25 O          -2.0119    3.8769   -9.0427 O.co2   1  UNL1       -0.5433
     26 H          -0.9670    6.8210   -0.7642 H       1  UNL1        0.0618
     27 H          -2.9589    5.5455   -1.4488 H       1  UNL1        0.0618
     28 H          -2.8510    3.0915   -1.6190 H       1  UNL1        0.0622
     29 H           1.2387    3.1877   -0.4129 H       1  UNL1        0.0622
     30 H           1.1328    5.6424   -0.2497 H       1  UNL1        0.0618
     31 H          -1.7392    1.3738   -3.5597 H       1  UNL1        0.1497
     32 H          -4.7865    1.0257   -6.5948 H       1  UNL1        0.0435
     33 H          -3.8257   -0.1196   -7.5497 H       1  UNL1        0.0435
     34 H1          0.0657   -0.0555   -0.0300 H       1  UNL1        0.2005
     35 H2          0.9999    1.3205   -0.0348 H       1  UNL1        0.2005
     36 OXT        -0.0791    3.8722   -7.9485 O.co2   1  UNL1       -0.5433
     37 N           0.0468    0.9626    0.0002 N.4     1  UNL1        0.2307
     38 H3         -0.3920    1.2636    0.8783 H       1  UNL1        0.2005
@<TRIPOS>UNITY_ATOM_ATTR
36 1
charge -1
37 1
charge 1
@<TRIPOS>BOND
     1     1     6   ar
     2     1     2   ar
     3     1    26    1
     4     2     3   ar
     5     2    27    1
     6     3     4   ar
     7     3    28    1
     8     4     5   ar
     9     4     7    1
    10     5     6   ar
    11     5    29    1
    12     6    30    1
    13     7     8    1
    14     7     9    1
    15     7    37    1
    16     9    10    2
    17     9    11   am
    18    11    12    1
    19    11    31    1
    20    12    13    1
    21    12    17    1
    22    12    14    1
    23    14    15    1
    24    14    22    1
    25    14    16    1
    26    16    17   am
    27    16    19    1
    28    17    18    2
    29    19    20    2
    30    19    24    1
    31    20    21    1
    32    20    23    1
    33    21    22    1
    34    21    32    1
    35    21    33    1
    36    24    25   ar
    37    24    36   ar
    38    34    37    1
    39    35    37    1
    40    37    38    1
