@<TRIPOS>MOLECULE
ZINC01532728
 19 18 0 0 0
SMALL
GASTEIGER

@<TRIPOS>ATOM
      1 C           1.3792    1.6193    0.1917 C.3     1  UNL1       -0.0414
      2 N          -0.0673    1.3793    0.1022 N.4     1  UNL1        0.2410
      3 C          -0.6437    2.2433   -0.9367 C.3     1  UNL1       -0.0414
      4 C          -0.6949    1.6830    1.3952 C.3     1  UNL1       -0.0414
      5 C          -0.3098   -0.0282   -0.2413 C.3     1  UNL1        0.0097
      6 C           0.2180   -0.9120    0.8593 C.2     1  UNL1        0.0864
      7 O           0.8648   -0.4334    1.7606 O.co2   1  UNL1       -0.5444
      8 H           1.8624    1.2709   -0.7211 H       1  UNL1        0.0778
      9 H           1.5635    2.6864    0.3157 H       1  UNL1        0.0778
     10 H           1.7850    1.0787    1.0467 H       1  UNL1        0.0778
     11 H          -1.7170    2.0652   -1.0031 H       1  UNL1        0.0778
     12 H          -0.4637    3.2877   -0.6818 H       1  UNL1        0.0778
     13 H          -0.1780    2.0180   -1.8961 H       1  UNL1        0.0778
     14 H          -0.1638    1.1578    2.1891 H       1  UNL1        0.0778
     15 H          -0.6509    2.7568    1.5772 H       1  UNL1        0.0778
     16 H          -1.7357    1.3596    1.3788 H       1  UNL1        0.0778
     17 H          -1.3807   -0.1942   -0.3586 H       1  UNL1        0.0879
     18 H           0.1993   -0.2672   -1.1750 H       1  UNL1        0.0879
     19 O          -0.0304   -2.2310    0.8382 O.co2   1  UNL1       -0.5444
@<TRIPOS>UNITY_ATOM_ATTR
2 1
charge 1
19 1
charge -1
@<TRIPOS>BOND
     1     1     2    1
     2     1     8    1
     3     1     9    1
     4     1    10    1
     5     2     3    1
     6     2     4    1
     7     2     5    1
     8     3    11    1
     9     3    12    1
    10     3    13    1
    11     4    14    1
    12     4    15    1
    13     4    16    1
    14     5     6    1
    15     5    17    1
    16     5    18    1
    17     6     7   ar
    18     6    19   ar
