@<TRIPOS>MOLECULE
ZINC00523925
 43 45 0 0 0
SMALL
GASTEIGER

@<TRIPOS>ATOM
      1 C           2.4902    1.0476   -0.0161 C.3     1  UNL1       -0.0397
      2 C           1.1750    1.7832    0.0004 C.ar    1  UNL1       -0.0503
      3 C          -0.0126    1.0758    0.0080 C.ar    1  UNL1       -0.0570
      4 C          -1.2190    1.7507    0.0173 C.ar    1  UNL1       -0.0348
      5 C          -1.2377    3.1328    0.0299 C.ar    1  UNL1        0.1086
      6 C          -0.0501    3.8402    0.0223 C.ar    1  UNL1       -0.0348
      7 C           1.1563    3.1654    0.0076 C.ar    1  UNL1       -0.0570
      8 S          -2.7754    3.9930    0.0481 S.O2    1  UNL1        0.0756
      9 O          -3.7327    3.1017    0.6035 O.2     1  UNL1       -0.1499
     10 O          -2.5168    5.2755    0.6027 O.2     1  UNL1       -0.1499
     11 N          -3.2172    4.2395   -1.5287 N.am    1  UNL1       -0.1683
     12 C          -3.5035    3.1873   -2.3207 C.2     1  UNL1        0.3327
     13 O          -3.4374    2.0570   -1.8775 O.2     1  UNL1       -0.2499
     14 N          -3.8631    3.3880   -3.6040 N.am    1  UNL1       -0.2309
     15 N          -3.9374    4.6579   -4.1019 N.3     1  UNL1       -0.2252
     16 C          -5.3201    4.9619   -4.5938 C.3     1  UNL1        0.0199
     17 C          -5.1569    5.1583   -6.0720 C.3     1  UNL1       -0.0226
     18 H          -5.0744    4.1778   -6.5410 H       1  UNL1        0.0317
     19 C          -5.9605    6.0562   -6.9632 C.3     1  UNL1       -0.0487
     20 C          -4.9520    6.4888   -8.0715 C.3     1  UNL1       -0.0525
     21 C          -3.5620    5.9339   -7.6208 C.3     1  UNL1       -0.0487
     22 C          -3.7353    5.8473   -6.1170 C.3     1  UNL1       -0.0226
     23 H          -3.7318    6.8367   -5.6596 H       1  UNL1        0.0317
     24 C          -2.9960    4.8386   -5.2574 C.3     1  UNL1        0.0199
     25 H           2.7974    0.8757   -1.0477 H       1  UNL1        0.0278
     26 H           3.2466    1.6441    0.4937 H       1  UNL1        0.0278
     27 H           2.3777    0.0907    0.4936 H       1  UNL1        0.0278
     28 H           0.0021   -0.0041    0.0020 H       1  UNL1        0.0621
     29 H          -2.1469    1.1980    0.0188 H       1  UNL1        0.0637
     30 H          -0.0647    4.9201    0.0276 H       1  UNL1        0.0637
     31 H           2.0841    3.7181    0.0014 H       1  UNL1        0.0621
     32 H          -3.2700    5.1413   -1.8823 H       1  UNL1        0.1782
     33 H          -4.0692    2.6307   -4.1741 H       1  UNL1        0.1708
     34 H          -5.9884    4.1247   -4.3925 H       1  UNL1        0.0446
     35 H          -5.6981    5.8722   -4.1283 H       1  UNL1        0.0446
     36 H          -6.3159    6.9253   -6.4096 H       1  UNL1        0.0268
     37 H          -6.7976    5.5115   -7.3998 H       1  UNL1        0.0268
     38 H          -4.9173    7.5757   -8.1450 H       1  UNL1        0.0265
     39 H          -5.2375    6.0551   -9.0299 H       1  UNL1        0.0265
     40 H          -2.7622    6.6270   -7.8819 H       1  UNL1        0.0268
     41 H          -3.3777    4.9488   -8.0495 H       1  UNL1        0.0268
     42 H          -2.0408    5.2416   -4.9206 H       1  UNL1        0.0446
     43 H          -2.8553    3.9003   -5.7940 H       1  UNL1        0.0446
@<TRIPOS>BOND
     1     1     2    1
     2     1    25    1
     3     1    26    1
     4     1    27    1
     5     2     7   ar
     6     2     3   ar
     7     3     4   ar
     8     3    28    1
     9     4     5   ar
    10     4    29    1
    11     5     6   ar
    12     5     8    1
    13     6     7   ar
    14     6    30    1
    15     7    31    1
    16     8     9    2
    17     8    10    2
    18     8    11    1
    19    11    12   am
    20    11    32    1
    21    12    13    2
    22    12    14   am
    23    14    15    1
    24    14    33    1
    25    15    24    1
    26    15    16    1
    27    16    17    1
    28    16    34    1
    29    16    35    1
    30    17    18    1
    31    17    22    1
    32    17    19    1
    33    19    20    1
    34    19    36    1
    35    19    37    1
    36    20    21    1
    37    20    38    1
    38    20    39    1
    39    21    22    1
    40    21    40    1
    41    21    41    1
    42    22    23    1
    43    22    24    1
    44    24    42    1
    45    24    43    1
