@<TRIPOS>MOLECULE
ZINC08101125
 78 80 0 0 0
SMALL
GASTEIGER

@<TRIPOS>ATOM
      1 C           1.8735   -1.9477   -8.3452 C.3     1  UNL1       -0.0193
      2 C           0.6215   -1.4526   -7.6183 C.3     1  UNL1       -0.0004
      3 H           0.5845   -0.3639   -7.6588 H       1  UNL1        0.0873
      4 C           0.6660   -1.9075   -6.1582 C.3     1  UNL1        0.1041
      5 H           1.5577   -1.5038   -5.6787 H       1  UNL1        0.0654
      6 C          -0.5803   -1.4011   -5.4275 C.3     1  UNL1       -0.0160
      7 C          -0.5581   -1.9106   -3.9831 C.3     1  UNL1       -0.0025
      8 C          -0.4719   -3.4399   -3.9941 C.3     1  UNL1        0.0279
      9 H          -1.3628   -3.8516   -4.4684 H       1  UNL1        0.0900
     10 C           0.7702   -3.8676   -4.7802 C.3     1  UNL1        0.2034
     11 H           0.8136   -4.9557   -4.8276 H       1  UNL1        0.0970
     12 O           0.7009   -3.3351   -6.1045 O.3     1  UNL1       -0.3375
     13 O           1.9411   -3.3719   -4.1279 O.3     1  UNL1       -0.3348
     14 C           3.1649   -3.7693   -4.7494 C.3     1  UNL1        0.1326
     15 H           2.9987   -3.9195   -5.8162 H       1  UNL1        0.0681
     16 C           3.6555   -5.0752   -4.1210 C.3     1  UNL1        0.0104
     17 H           4.5890   -5.3784   -4.5950 H       1  UNL1        0.0878
     18 C           3.8888   -4.8645   -2.6236 C.3     1  UNL1        0.0381
     19 C           4.9419   -3.7734   -2.4202 C.3     1  UNL1        0.0104
     20 H           5.8755   -4.0766   -2.8942 H       1  UNL1        0.0878
     21 C           4.4514   -2.4676   -3.0486 C.3     1  UNL1        0.1325
     22 H           5.2016   -1.6903   -2.9036 H       1  UNL1        0.0681
     23 C           4.2180   -2.6783   -4.5459 C.3     1  UNL1        0.1181
     24 H           5.1516   -2.9814   -5.0200 H       1  UNL1        0.0649
     25 O           3.7599   -1.4586   -5.1329 O.3     1  UNL1       -0.3862
     26 O           3.2275   -2.0701   -2.4271 O.3     1  UNL1       -0.3371
     27 C           3.1964   -0.6980   -2.0294 C.3     1  UNL1        0.1911
     28 H           4.1562   -0.4247   -1.5909 H       1  UNL1        0.0939
     29 C           2.0858   -0.4909   -0.9963 C.3     1  UNL1        0.1509
     30 H           2.3001   -1.0839   -0.1072 H       1  UNL1        0.0703
     31 C           2.0192    0.9925   -0.6200 C.3     1  UNL1        0.0397
     32 H           2.9563    1.2920   -0.1506 H       1  UNL1        0.0907
     33 C           1.7944    1.8202   -1.8891 C.3     1  UNL1        0.1311
     34 C           2.9163    1.5239   -2.8877 C.3     1  UNL1        0.0846
     35 O           2.9426    0.1234   -3.1709 O.3     1  UNL1       -0.3455
     36 C           0.4462    1.4487   -2.5098 C.3     1  UNL1       -0.0285
     37 O           1.8030    3.2108   -1.5601 O.3     1  UNL1       -0.3809
     38 C           1.3211    0.9462    1.6980 C.3     1  UNL1       -0.0444
     39 O           0.8343   -0.8991   -1.5523 O.3     1  UNL1       -0.3812
     40 H           1.8646   -3.0369   -8.3834 H       1  UNL1        0.0285
     41 H           1.8866   -1.5486   -9.3594 H       1  UNL1        0.0285
     42 H           2.7614   -1.6102   -7.8105 H       1  UNL1        0.0285
     43 H          -1.4734   -1.7715   -5.9307 H       1  UNL1        0.0294
     44 H          -0.5858   -0.3111   -5.4292 H       1  UNL1        0.0294
     45 H          -1.4701   -1.6005   -3.4730 H       1  UNL1        0.0322
     46 H           0.3086   -1.5002   -3.4650 H       1  UNL1        0.0322
     47 H           2.9553   -4.5614   -2.1496 H       1  UNL1        0.0377
     48 H           4.2383   -5.7948   -2.1759 H       1  UNL1        0.0377
     49 H           4.3505   -0.7066   -4.9890 H       1  UNL1        0.2100
     50 H           3.8724    1.8264   -2.4606 H       1  UNL1        0.0591
     51 H           2.7383    2.0778   -3.8094 H       1  UNL1        0.0591
     52 H           0.4893    0.4272   -2.8876 H       1  UNL1        0.0260
     53 H          -0.3350    1.5236   -1.7533 H       1  UNL1        0.0260
     54 H           0.2237    2.1306   -3.3305 H       1  UNL1        0.0260
     55 H           1.6707    3.7954   -2.3189 H       1  UNL1        0.2105
     56 H           1.6507   -0.0891    1.7853 H       1  UNL1        0.0777
     57 H           2.1408    1.6124    1.9669 H       1  UNL1        0.0777
     58 H           0.4790    1.1172    2.3685 H       1  UNL1        0.0777
     59 H           0.8048   -1.8297   -1.8135 H       1  UNL1        0.2103
     60 H           5.4907   -4.4200   -0.5442 H       1  UNL1        0.1998
     61 H           5.8097   -2.8113   -0.8203 H       1  UNL1        0.1998
     62 H           2.9985   -7.0244   -4.0337 H       1  UNL1        0.1998
     63 H           1.7921   -5.8988   -3.8249 H       1  UNL1        0.1998
     64 H          -1.1839   -3.6661   -2.0757 H       1  UNL1        0.1999
     65 H          -0.2469   -4.9368   -2.5986 H       1  UNL1        0.1999
     66 H          -1.4154   -1.6599   -7.8339 H       1  UNL1        0.1998
     67 H          -0.5702   -1.8130   -9.2580 H       1  UNL1        0.1998
     68 N           0.8973    1.2162    0.3111 N.4     1  UNL1        0.2310
     69 H           0.1228    0.5885    0.0653 H       1  UNL1        0.2015
     70 H           0.5844    2.1913    0.2363 H       1  UNL1        0.2015
     71 N           5.1425   -3.5652   -0.9752 N.4     1  UNL1        0.2228
     72 H           4.2459   -3.3132   -0.5429 H       1  UNL1        0.1998
     73 N           2.6414   -6.1213   -4.3414 N.4     1  UNL1        0.2228
     74 H           2.4209   -6.1719   -5.3429 H       1  UNL1        0.1998
     75 N          -0.3540   -3.9238   -2.6072 N.4     1  UNL1        0.2243
     76 H           0.4704   -3.4960   -2.1695 H       1  UNL1        0.1999
     77 N          -0.5700   -2.0322   -8.2632 N.4     1  UNL1        0.2224
     78 H          -0.5553   -3.0520   -8.1449 H       1  UNL1        0.1998
@<TRIPOS>UNITY_ATOM_ATTR
68 1
charge 1
71 1
charge 1
73 1
charge 1
75 1
charge 1
77 1
charge 1
@<TRIPOS>BOND
     1     1     2    1
     2     1    40    1
     3     1    41    1
     4     1    42    1
     5     2     3    1
     6     2     4    1
     7     2    77    1
     8     4     5    1
     9     4    12    1
    10     4     6    1
    11     6     7    1
    12     6    43    1
    13     6    44    1
    14     7     8    1
    15     7    45    1
    16     7    46    1
    17     8     9    1
    18     8    10    1
    19     8    75    1
    20    10    11    1
    21    10    12    1
    22    10    13    1
    23    13    14    1
    24    14    15    1
    25    14    23    1
    26    14    16    1
    27    16    17    1
    28    16    18    1
    29    16    73    1
    30    18    19    1
    31    18    47    1
    32    18    48    1
    33    19    20    1
    34    19    21    1
    35    19    71    1
    36    21    22    1
    37    21    23    1
    38    21    26    1
    39    23    24    1
    40    23    25    1
    41    25    49    1
    42    26    27    1
    43    27    28    1
    44    27    35    1
    45    27    29    1
    46    29    30    1
    47    29    31    1
    48    29    39    1
    49    31    32    1
    50    31    33    1
    51    31    68    1
    52    33    34    1
    53    33    36    1
    54    33    37    1
    55    34    35    1
    56    34    50    1
    57    34    51    1
    58    36    52    1
    59    36    53    1
    60    36    54    1
    61    37    55    1
    62    38    56    1
    63    38    57    1
    64    38    58    1
    65    38    68    1
    66    39    59    1
    67    60    71    1
    68    61    71    1
    69    62    73    1
    70    63    73    1
    71    64    75    1
    72    65    75    1
    73    66    77    1
    74    67    77    1
    75    68    69    1
    76    68    70    1
    77    71    72    1
    78    73    74    1
    79    75    76    1
    80    77    78    1
