@<TRIPOS>MOLECULE
ZINC03830784
 58 61 0 0 0
SMALL
GASTEIGER

@<TRIPOS>ATOM
      1 C          -7.1819   -5.0951    2.8061 C.3     1  UNL1       -0.0653
      2 C          -6.3032   -3.8483    2.6871 C.3     1  UNL1       -0.0554
      3 C          -6.2663   -3.3878    1.2285 C.3     1  UNL1       -0.0432
      4 C          -5.3875   -2.1409    1.1094 C.3     1  UNL1        0.0449
      5 C          -5.3511   -1.6873   -0.3272 C.2     1  UNL1        0.3074
      6 O          -5.9650   -2.2986   -1.1695 O.2     1  UNL1       -0.2508
      7 O          -4.6367   -0.6042   -0.6712 O.3     1  UNL1       -0.4608
      8 C          -4.6474   -0.2254   -2.0728 C.3     1  UNL1        0.1087
      9 H          -5.5790   -0.5430   -2.5412 H       1  UNL1        0.0739
     10 C          -3.4441   -0.8556   -2.8025 C.3     1  UNL1       -0.0149
     11 C          -2.5958    0.3164   -3.3421 C.3     1  UNL1       -0.0460
     12 C          -2.9635    1.5063   -2.4083 C.3     1  UNL1       -0.0288
     13 H          -2.7347    2.4785   -2.8450 H       1  UNL1        0.0310
     14 C          -4.4770    1.2930   -2.2112 C.3     1  UNL1        0.0081
     15 C          -5.0420    2.0507   -1.0325 C.3     1  UNL1       -0.0434
     16 C          -4.2518    1.7773    0.2490 C.3     1  UNL1       -0.0453
     17 C          -2.7965    2.1800   -0.0001 C.3     1  UNL1       -0.0125
     18 H          -2.7774    3.2139   -0.3448 H       1  UNL1        0.0352
     19 C          -2.2267    1.2771   -1.0887 C.3     1  UNL1       -0.0305
     20 H          -2.3511    0.2351   -0.7940 H       1  UNL1        0.0310
     21 C          -0.7361    1.5843   -1.2423 C.3     1  UNL1       -0.0454
     22 C          -0.0127    1.0858    0.0080 C.3     1  UNL1       -0.0270
     23 C          -0.7020    1.5637    1.2589 C.ar    1  UNL1       -0.0405
     24 C          -1.9865    2.0633    1.2603 C.ar    1  UNL1       -0.0406
     25 C          -2.5663    2.4782    2.4515 C.ar    1  UNL1       -0.0546
     26 C          -1.8705    2.4009    3.6357 C.ar    1  UNL1       -0.0199
     27 C          -0.5752    1.9044    3.6392 C.ar    1  UNL1        0.1171
     28 C           0.0029    1.4881    2.4522 C.ar    1  UNL1       -0.0167
     29 O           0.1232    1.8275    4.8025 O.3     1  UNL1       -0.5068
     30 C          -5.1947    1.7528   -3.4819 C.3     1  UNL1       -0.0559
     31 H          -7.2082   -5.4232    3.8452 H       1  UNL1        0.0230
     32 H          -8.1930   -4.8601    2.4735 H       1  UNL1        0.0230
     33 H          -6.7705   -5.8903    2.1843 H       1  UNL1        0.0230
     34 H          -5.2921   -4.0832    3.0196 H       1  UNL1        0.0263
     35 H          -6.7146   -3.0531    3.3088 H       1  UNL1        0.0263
     36 H          -7.2773   -3.1528    0.8959 H       1  UNL1        0.0270
     37 H          -5.8549   -4.1829    0.6067 H       1  UNL1        0.0270
     38 H          -4.3765   -2.3759    1.4420 H       1  UNL1        0.0377
     39 H          -5.7990   -1.3458    1.7312 H       1  UNL1        0.0377
     40 H          -2.8559   -1.4533   -2.1062 H       1  UNL1        0.0301
     41 H          -3.7913   -1.4776   -3.6276 H       1  UNL1        0.0301
     42 H          -1.5332    0.0856   -3.2670 H       1  UNL1        0.0269
     43 H          -2.8671    0.5417   -4.3735 H       1  UNL1        0.0269
     44 H          -6.0790    1.7508   -0.8813 H       1  UNL1        0.0272
     45 H          -5.0104    3.1187   -1.2484 H       1  UNL1        0.0272
     46 H          -4.3040    0.7168    0.4952 H       1  UNL1        0.0271
     47 H          -4.6625    2.3673    1.0684 H       1  UNL1        0.0271
     48 H          -0.5914    2.6596   -1.3465 H       1  UNL1        0.0271
     49 H          -0.3439    1.0738   -2.1219 H       1  UNL1        0.0271
     50 H           0.0021   -0.0041    0.0020 H       1  UNL1        0.0313
     51 H           1.0120    1.4573    0.0002 H       1  UNL1        0.0313
     52 H          -3.5744    2.8656    2.4492 H       1  UNL1        0.0622
     53 H          -2.3299    2.7252    4.5578 H       1  UNL1        0.0654
     54 H           1.0111    1.1007    2.4548 H       1  UNL1        0.0657
     55 H           0.6379    2.6206    5.0054 H       1  UNL1        0.2921
     56 H          -5.0279    2.8200   -3.6275 H       1  UNL1        0.0236
     57 H          -4.8041    1.2037   -4.3386 H       1  UNL1        0.0236
     58 H          -6.2635    1.5620   -3.3847 H       1  UNL1        0.0236
@<TRIPOS>BOND
     1     1     2    1
     2     1    31    1
     3     1    32    1
     4     1    33    1
     5     2     3    1
     6     2    34    1
     7     2    35    1
     8     3     4    1
     9     3    36    1
    10     3    37    1
    11     4     5    1
    12     4    38    1
    13     4    39    1
    14     5     6    2
    15     5     7    1
    16     7     8    1
    17     8     9    1
    18     8    14    1
    19     8    10    1
    20    10    11    1
    21    10    40    1
    22    10    41    1
    23    11    12    1
    24    11    42    1
    25    11    43    1
    26    12    13    1
    27    12    19    1
    28    12    14    1
    29    14    15    1
    30    14    30    1
    31    15    16    1
    32    15    44    1
    33    15    45    1
    34    16    17    1
    35    16    46    1
    36    16    47    1
    37    17    18    1
    38    17    24    1
    39    17    19    1
    40    19    20    1
    41    19    21    1
    42    21    22    1
    43    21    48    1
    44    21    49    1
    45    22    23    1
    46    22    50    1
    47    22    51    1
    48    23    28   ar
    49    23    24   ar
    50    24    25   ar
    51    25    26   ar
    52    25    52    1
    53    26    27   ar
    54    26    53    1
    55    27    28   ar
    56    27    29    1
    57    28    54    1
    58    29    55    1
    59    30    56    1
    60    30    57    1
    61    30    58    1
