@<TRIPOS>MOLECULE
ZINC01530581
 38 40 0 0 0
SMALL
GASTEIGER

@<TRIPOS>ATOM
      1 C           0.0259    4.3005    0.0289 C.ar    1  UNL1       -0.0617
      2 C           1.2321    3.6253    0.0264 C.ar    1  UNL1       -0.0613
      3 C           1.2505    2.2432    0.0120 C.ar    1  UNL1       -0.0528
      4 C           0.0627    1.5362    0.0002 C.ar    1  UNL1        0.0091
      5 C          -1.1435    2.2115   -0.0026 C.ar    1  UNL1       -0.0528
      6 C          -1.1620    3.5935    0.0171 C.ar    1  UNL1       -0.0613
      7 CA          0.0827    0.0294   -0.0159 C.3     1  UNL1        0.0789
      8 HA          1.0544   -0.3173   -0.3677 H       1  UNL1        0.1002
      9 C          -0.1623   -0.4911    1.3769 C.2     1  UNL1        0.2665
     10 O          -1.2657   -0.8833    1.6923 O.2     1  UNL1       -0.2692
     11 N           0.8448   -0.5208    2.2721 N.am    1  UNL1       -0.2968
     12 CA          0.6067   -1.0269    3.6261 C.3     1  UNL1        0.1285
     13 HA         -0.4347   -0.9284    3.9325 H       1  UNL1        0.0622
     14 C           1.5908   -0.4868    4.6503 C.3     1  UNL1        0.1041
     15 H           2.4318    0.0806    4.2517 H       1  UNL1        0.0644
     16 N           1.8271   -1.9368    4.9200 N.am    1  UNL1       -0.2523
     17 C           1.1673   -2.4132    3.8527 C.2     1  UNL1        0.2439
     18 O           1.0647   -3.4910    3.3058 O.2     1  UNL1       -0.2731
     19 CA          2.4309   -2.4795    6.0754 C.2     1  UNL1        0.0749
     20 C           2.4987   -1.7697    7.1932 C.2     1  UNL1        0.0514
     21 C           2.0461   -0.3660    7.4318 C.3     1  UNL1        0.0331
     22 S           0.8486    0.1831    6.1767 S.3     1  UNL1       -0.1300
     23 CL          3.2051   -2.5771    8.5580 Cl      1  UNL1       -0.0854
     24 C           2.9881   -3.8406    6.0386 C.2     1  UNL1        0.0871
     25 O           3.6012   -4.2723    6.9952 O.co2   1  UNL1       -0.5433
     26 H           0.0115    5.3804    0.0398 H       1  UNL1        0.0618
     27 H           2.1601    4.1777    0.0353 H       1  UNL1        0.0618
     28 H           2.1929    1.7157    0.0097 H       1  UNL1        0.0622
     29 H          -2.0715    1.6592   -0.0163 H       1  UNL1        0.0622
     30 H          -2.1044    4.1211    0.0187 H       1  UNL1        0.0618
     31 H           1.7274   -0.2071    2.0198 H       1  UNL1        0.1497
     32 H           2.9125    0.2949    7.4088 H       1  UNL1        0.0435
     33 H           1.5815   -0.3055    8.4160 H       1  UNL1        0.0435
     34 H1         -1.8795   -0.1565   -0.6103 H       1  UNL1        0.2005
     35 H2         -0.7914   -0.1827   -1.8678 H       1  UNL1        0.2005
     36 OXT         2.8185   -4.6090    4.9440 O.co2   1  UNL1       -0.5433
     37 N          -0.9654   -0.4896   -0.9122 N.4     1  UNL1        0.2307
     38 H3         -0.9565   -1.5160   -0.8831 H       1  UNL1        0.2005
@<TRIPOS>UNITY_ATOM_ATTR
36 1
charge -1
37 1
charge 1
@<TRIPOS>BOND
     1     1     6   ar
     2     1     2   ar
     3     1    26    1
     4     2     3   ar
     5     2    27    1
     6     3     4   ar
     7     3    28    1
     8     4     5   ar
     9     4     7    1
    10     5     6   ar
    11     5    29    1
    12     6    30    1
    13     7     8    1
    14     7     9    1
    15     7    37    1
    16     9    10    2
    17     9    11   am
    18    11    12    1
    19    11    31    1
    20    12    13    1
    21    12    17    1
    22    12    14    1
    23    14    15    1
    24    14    22    1
    25    14    16    1
    26    16    17   am
    27    16    19    1
    28    17    18    2
    29    19    20    2
    30    19    24    1
    31    20    21    1
    32    20    23    1
    33    21    22    1
    34    21    32    1
    35    21    33    1
    36    24    25   ar
    37    24    36   ar
    38    34    37    1
    39    35    37    1
    40    37    38    1
