@<TRIPOS>MOLECULE
ZINC11592792
 49 51 0 0 0
SMALL
GASTEIGER

@<TRIPOS>ATOM
      1 C           2.1293    6.4922    3.8234 C.3     1  UNL1       -0.0382
      2 C           2.8672    6.0878    5.1013 C.3     1  UNL1        0.0659
      3 H           3.7034    6.7674    5.2660 H       1  UNL1        0.0598
      4 C           1.9050    6.1691    6.2905 C.3     1  UNL1        0.0375
      5 C           0.8762    5.0596    6.1638 C.2     1  UNL1        0.1995
      6 O          -0.3055    5.2711    6.2940 O.2     1  UNL1       -0.2914
      7 C           1.4080    3.6773    5.8657 C.3     1  UNL1        0.2810
      8 C           2.3502    3.7981    4.6596 C.3     1  UNL1        0.2221
      9 H           1.7793    4.1451    3.7984 H       1  UNL1        0.0971
     10 O           3.3627    4.7519    4.9573 O.3     1  UNL1       -0.3429
     11 O           2.8777    2.5085    4.3605 O.3     1  UNL1       -0.3374
     12 C           1.8452    1.5625    4.0342 C.3     1  UNL1        0.1245
     13 H           2.2821    0.5820    3.8451 H       1  UNL1        0.0653
     14 C           1.1200    2.0531    2.7784 C.3     1  UNL1        0.1289
     15 H           1.8242    2.0991    1.9477 H       1  UNL1        0.0678
     16 C          -0.0162    1.0911    2.4293 C.3     1  UNL1        0.0381
     17 H           0.3908    0.0950    2.2557 H       1  UNL1        0.0905
     18 C          -1.0117    1.0419    3.5909 C.3     1  UNL1        0.1449
     19 H          -1.4064    2.0411    3.7748 H       1  UNL1        0.0710
     20 C          -0.3069    0.5517    4.8376 C.3     1  UNL1        0.0385
     21 H          -1.0117    0.5194    5.6685 H       1  UNL1        0.0905
     22 C           0.8580    1.4687    5.1967 C.3     1  UNL1        0.1361
     23 H           1.3744    1.0574    6.0640 H       1  UNL1        0.0682
     24 O           0.3599    2.7690    5.5300 O.3     1  UNL1       -0.3273
     25 C          -0.8425   -1.8094    4.8093 C.3     1  UNL1       -0.0444
     26 O          -2.0844    0.1565    3.2631 O.3     1  UNL1       -0.3808
     27 C          -0.0127    1.0858    0.0080 C.3     1  UNL1       -0.0444
     28 O           0.5831    3.3554    3.0190 O.3     1  UNL1       -0.3834
     29 O           2.1248    3.1845    6.9995 O.3     1  UNL1       -0.3551
     30 H           1.7603    7.5128    3.9245 H       1  UNL1        0.0255
     31 H           2.8123    6.4350    2.9759 H       1  UNL1        0.0255
     32 H           1.2896    5.8168    3.6596 H       1  UNL1        0.0255
     33 H           1.4482    7.0586    6.2894 H       1  UNL1        0.0369
     34 H           2.4615    6.0470    7.2198 H       1  UNL1        0.0369
     35 H          -1.1741   -1.7553    5.8462 H       1  UNL1        0.0777
     36 H          -1.6871   -1.6185    4.1473 H       1  UNL1        0.0777
     37 H          -0.4402   -2.8022    4.6079 H       1  UNL1        0.0777
     38 H          -2.5801    0.4144    2.4738 H       1  UNL1        0.2103
     39 H           0.0021   -0.0041    0.0020 H       1  UNL1        0.0777
     40 H           1.0099    1.4631    0.0003 H       1  UNL1        0.0777
     41 H          -0.5399    1.4469   -0.8751 H       1  UNL1        0.0777
     42 H           0.1117    3.7322    2.2635 H       1  UNL1        0.2102
     43 H           1.5805    3.0736    7.7910 H       1  UNL1        0.2133
     44 N           0.2105   -0.8039    4.5722 N.4     1  UNL1        0.2309
     45 H           1.0044   -0.9915    5.1957 H       1  UNL1        0.2015
     46 H           0.5211   -0.8627    3.5953 H       1  UNL1        0.2015
     47 N          -0.7091    1.5657    1.2166 N.4     1  UNL1        0.2309
     48 H          -0.7230    2.5923    1.2143 H       1  UNL1        0.2015
     49 H          -1.6724    1.2103    1.2160 H       1  UNL1        0.2015
@<TRIPOS>UNITY_ATOM_ATTR
44 1
charge 1
47 1
charge 1
@<TRIPOS>BOND
     1     1     2    1
     2     1    30    1
     3     1    31    1
     4     1    32    1
     5     2     3    1
     6     2    10    1
     7     2     4    1
     8     4     5    1
     9     4    33    1
    10     4    34    1
    11     5     6    2
    12     5     7    1
    13     7    24    1
    14     7     8    1
    15     7    29    1
    16     8     9    1
    17     8    10    1
    18     8    11    1
    19    11    12    1
    20    12    13    1
    21    12    22    1
    22    12    14    1
    23    14    15    1
    24    14    16    1
    25    14    28    1
    26    16    17    1
    27    16    18    1
    28    16    47    1
    29    18    19    1
    30    18    20    1
    31    18    26    1
    32    20    21    1
    33    20    22    1
    34    20    44    1
    35    22    23    1
    36    22    24    1
    37    25    35    1
    38    25    36    1
    39    25    37    1
    40    25    44    1
    41    26    38    1
    42    27    39    1
    43    27    40    1
    44    27    41    1
    45    27    47    1
    46    28    42    1
    47    29    43    1
    48    44    45    1
    49    44    46    1
    50    47    48    1
    51    47    49    1
