@<TRIPOS>MOLECULE
ZINC02847375
 35 35 0 0 0
SMALL
GASTEIGER

@<TRIPOS>ATOM
      1 C          -3.7731    1.1051    2.3927 C.3     1  UNL1       -0.0244
      2 C          -4.3969    0.1053    1.4168 C.3     1  UNL1       -0.0341
      3 C          -6.1328    1.6503    0.7368 C.3     1  UNL1       -0.0341
      4 C          -7.2739    0.7374    1.1901 C.3     1  UNL1       -0.0244
      5 C          -3.9961    1.6522   -0.4022 C.3     1  UNL1        0.0403
      6 H          -3.6636    2.3583    0.2230 H       1  UNL1        0.0934
      7 C          -4.6352    2.3136   -1.6250 C.3     1  UNL1       -0.0142
      8 C          -2.8501    0.7793   -0.8448 C.2     1  UNL1        0.2100
      9 O          -3.0043   -0.4192   -0.9445 O.2     1  UNL1       -0.2860
     10 C          -1.5439    1.3816   -1.1559 C.ar    1  UNL1        0.0231
     11 C          -0.4780    0.5749   -1.5669 C.ar    1  UNL1       -0.0511
     12 C           0.7414    1.1474   -1.8615 C.ar    1  UNL1       -0.0611
     13 C           0.9134    2.5158   -1.7464 C.ar    1  UNL1       -0.0617
     14 C          -0.1353    3.3203   -1.3357 C.ar    1  UNL1       -0.0611
     15 C          -1.3608    2.7631   -1.0378 C.ar    1  UNL1       -0.0511
     16 H          -3.2754    0.5647    3.1979 H       1  UNL1        0.0281
     17 H          -3.0456    1.7221    1.8652 H       1  UNL1        0.0281
     18 H          -4.5540    1.7409    2.8101 H       1  UNL1        0.0281
     19 H          -5.1666   -0.4713    1.9299 H       1  UNL1        0.0812
     20 H          -3.6255   -0.5688    1.0447 H       1  UNL1        0.0812
     21 H          -5.8199    2.2813    1.5686 H       1  UNL1        0.0812
     22 H          -6.4745    2.2775   -0.0866 H       1  UNL1        0.0812
     23 H          -7.5165    0.0356    0.3922 H       1  UNL1        0.0281
     24 H          -6.9667    0.1856    2.0784 H       1  UNL1        0.0281
     25 H          -8.1514    1.3408    1.4226 H       1  UNL1        0.0281
     26 H          -3.8916    2.9230   -2.1386 H       1  UNL1        0.0289
     27 H          -5.0052    1.5441   -2.3025 H       1  UNL1        0.0289
     28 H          -5.4640    2.9450   -1.3049 H       1  UNL1        0.0289
     29 H          -0.6108   -0.4930   -1.6575 H       1  UNL1        0.0625
     30 H           1.5642    0.5263   -2.1833 H       1  UNL1        0.0618
     31 H           1.8708    2.9583   -1.9787 H       1  UNL1        0.0618
     32 H           0.0066    4.3874   -1.2487 H       1  UNL1        0.0618
     33 H          -2.1783    3.3922   -0.7181 H       1  UNL1        0.0625
     34 N          -5.0082    0.8116    0.2713 N.4     1  UNL1        0.2424
     35 H          -5.3638    0.1179   -0.3970 H       1  UNL1        0.2040
@<TRIPOS>UNITY_ATOM_ATTR
34 1
charge 1
@<TRIPOS>BOND
     1     1     2    1
     2     1    16    1
     3     1    17    1
     4     1    18    1
     5     2    19    1
     6     2    20    1
     7     2    34    1
     8     3     4    1
     9     3    21    1
    10     3    22    1
    11     3    34    1
    12     4    23    1
    13     4    24    1
    14     4    25    1
    15     5     6    1
    16     5     7    1
    17     5     8    1
    18     5    34    1
    19     7    26    1
    20     7    27    1
    21     7    28    1
    22     8     9    2
    23     8    10    1
    24    10    15   ar
    25    10    11   ar
    26    11    12   ar
    27    11    29    1
    28    12    13   ar
    29    12    30    1
    30    13    14   ar
    31    13    31    1
    32    14    15   ar
    33    14    32    1
    34    15    33    1
    35    34    35    1
