@<TRIPOS>MOLECULE
ZINC02036972
 30 29 0 0 0
SMALL
GASTEIGER

@<TRIPOS>ATOM
      1 C          -2.3259    0.1092    0.2428 C.3     1  UNL1       -0.0216
      2 C          -2.4022    1.6202    0.0145 C.3     1  UNL1       -0.0255
      3 H          -2.9860    1.8229   -0.8834 H       1  UNL1        0.0848
      4 C          -3.0715    2.2849    1.2191 C.3     1  UNL1       -0.0066
      5 C          -3.2607    3.7770    0.9384 C.3     1  UNL1       -0.0295
      6 C          -3.9200    4.4317    2.1249 C.2     1  UNL1       -0.0851
      7 C          -3.3230    5.4205    2.7429 C.2     1  UNL1       -0.0796
      8 C          -1.9222    5.8167    2.3531 C.3     1  UNL1       -0.0440
      9 C          -4.0371    6.1619    3.8435 C.3     1  UNL1       -0.0440
     10 C          -0.5965    2.0351   -1.5444 C.3     1  UNL1       -0.0446
     11 H          -1.8490   -0.3643   -0.6154 H       1  UNL1        0.0284
     12 H          -1.7420   -0.0935    1.1406 H       1  UNL1        0.0284
     13 H          -3.3323   -0.2909    0.3658 H       1  UNL1        0.0284
     14 H          -4.0426    1.8225    1.3961 H       1  UNL1        0.0323
     15 H          -2.4426    2.1578    2.1002 H       1  UNL1        0.0323
     16 H          -2.2896    4.2393    0.7614 H       1  UNL1        0.0309
     17 H          -3.8896    3.9041    0.0573 H       1  UNL1        0.0309
     18 H          -4.8846    4.0856    2.4657 H       1  UNL1        0.0571
     19 H          -1.9608    6.5025    1.5068 H       1  UNL1        0.0274
     20 H          -1.4355    6.3070    3.1962 H       1  UNL1        0.0274
     21 H          -1.3573    4.9271    2.0745 H       1  UNL1        0.0274
     22 H          -3.8304    5.6805    4.7994 H       1  UNL1        0.0274
     23 H          -3.6869    7.1937    3.8732 H       1  UNL1        0.0274
     24 H          -5.1104    6.1478    3.6542 H       1  UNL1        0.0274
     25 H          -0.5923    0.9839   -1.8324 H       1  UNL1        0.0777
     26 H           0.4103    2.4418   -1.6391 H       1  UNL1        0.0777
     27 H          -1.2742    2.5875   -2.1954 H       1  UNL1        0.0777
     28 N          -1.0400    2.1637   -0.1434 N.4     1  UNL1        0.2268
     29 H          -0.3957    1.6447    0.4648 H       1  UNL1        0.2013
     30 H          -1.0380    3.1553    0.1228 H       1  UNL1        0.2013
@<TRIPOS>UNITY_ATOM_ATTR
28 1
charge 1
@<TRIPOS>BOND
     1     1     2    1
     2     1    11    1
     3     1    12    1
     4     1    13    1
     5     2     3    1
     6     2     4    1
     7     2    28    1
     8     4     5    1
     9     4    14    1
    10     4    15    1
    11     5     6    1
    12     5    16    1
    13     5    17    1
    14     6     7    2
    15     6    18    1
    16     7     8    1
    17     7     9    1
    18     8    19    1
    19     8    20    1
    20     8    21    1
    21     9    22    1
    22     9    23    1
    23     9    24    1
    24    10    25    1
    25    10    26    1
    26    10    27    1
    27    10    28    1
    28    28    29    1
    29    28    30    1
