@<TRIPOS>MOLECULE
ZINC00897258
 50 51 0 0 0
SMALL
GASTEIGER

@<TRIPOS>ATOM
      1 C           0.6283   -0.4863   -1.3017 C.3     1  UNL1       -0.0213
      2 C           0.0348    0.0116    0.0177 C.3     1  UNL1       -0.0214
      3 H          -0.9849   -0.3596    0.1204 H       1  UNL1        0.0851
      4 C           0.0239    1.5415    0.0269 C.3     1  UNL1        0.0152
      5 C          -0.6715    2.0315    1.2708 C.ar    1  UNL1       -0.0418
      6 C          -2.0355    2.2573    1.2554 C.ar    1  UNL1       -0.0549
      7 C          -2.6763    2.7010    2.3960 C.ar    1  UNL1       -0.0197
      8 C          -1.9481    2.9308    3.5543 C.ar    1  UNL1        0.1201
      9 C          -0.5787    2.7089    3.5656 C.ar    1  UNL1       -0.0197
     10 C           0.0564    2.2597    2.4240 C.ar    1  UNL1       -0.0549
     11 O          -2.5753    3.3722    4.6762 O.3     1  UNL1       -0.4951
     12 C          -3.9868    3.5790    4.5917 C.3     1  UNL1        0.0788
     13 C           0.4374   -1.8318    1.5351 C.3     1  UNL1       -0.0025
     14 C           1.3067   -2.3076    2.7008 C.3     1  UNL1        0.1197
     15 H           2.3581   -2.2379    2.4221 H       1  UNL1        0.0698
     16 C           0.9677   -3.7389    3.0287 C.ar    1  UNL1       -0.0121
     17 C          -0.1506   -4.0258    3.7897 C.ar    1  UNL1       -0.0524
     18 C          -0.4667   -5.3369    4.0937 C.ar    1  UNL1       -0.0180
     19 C           0.3378   -6.3678    3.6357 C.ar    1  UNL1        0.1380
     20 C           1.4645   -6.0794    2.8691 C.ar    1  UNL1        0.0755
     21 C           1.7721   -4.7617    2.5634 C.ar    1  UNL1       -0.0311
     22 N           2.2816   -7.1179    2.4028 N.am    1  UNL1       -0.2852
     23 C           2.8776   -7.0174    1.1982 C.2     1  UNL1        0.2042
     24 O           2.7727   -5.9956    0.5531 O.2     1  UNL1       -0.2792
     25 O           0.0280   -7.6578    3.9336 O.3     1  UNL1       -0.5049
     26 O           1.0615   -1.4861    3.8441 O.3     1  UNL1       -0.3819
     27 H           0.0238   -0.1222   -2.1324 H       1  UNL1        0.0284
     28 H           1.6480   -0.1151   -1.4043 H       1  UNL1        0.0284
     29 H           0.6361   -1.5762   -1.3082 H       1  UNL1        0.0284
     30 H           1.0488    1.9122    0.0137 H       1  UNL1        0.0368
     31 H          -0.5058    1.9064   -0.8531 H       1  UNL1        0.0368
     32 H          -2.6012    2.0824    0.3522 H       1  UNL1        0.0621
     33 H          -3.7424    2.8731    2.3848 H       1  UNL1        0.0654
     34 H          -0.0098    2.8867    4.4662 H       1  UNL1        0.0654
     35 H           1.1224    2.0865    2.4323 H       1  UNL1        0.0621
     36 H          -4.1996    4.3239    3.8249 H       1  UNL1        0.0660
     37 H          -4.4766    2.6404    4.3323 H       1  UNL1        0.0660
     38 H          -4.3608    3.9304    5.5533 H       1  UNL1        0.0660
     39 H          -0.6079   -1.8171    1.8437 H       1  UNL1        0.0843
     40 H           0.5577   -2.5112    0.6913 H       1  UNL1        0.0843
     41 H          -0.7791   -3.2235    4.1472 H       1  UNL1        0.0622
     42 H          -1.3410   -5.5576    4.6880 H       1  UNL1        0.0655
     43 H           2.6425   -4.5350    1.9655 H       1  UNL1        0.0641
     44 H           2.4182   -7.9092    2.9471 H       1  UNL1        0.1546
     45 H           3.4485   -7.8466    0.8074 H       1  UNL1        0.1255
     46 H          -0.5481   -8.0839    3.2842 H       1  UNL1        0.2922
     47 H           0.1438   -1.4994    4.1485 H       1  UNL1        0.2105
     48 N           0.8574   -0.4735    1.1419 N.4     1  UNL1        0.2313
     49 H           0.7455    0.1605    1.9417 H       1  UNL1        0.2017
     50 H           1.8434   -0.4933    0.8562 H       1  UNL1        0.2017
@<TRIPOS>UNITY_ATOM_ATTR
48 1
charge 1
@<TRIPOS>BOND
     1     1     2    1
     2     1    27    1
     3     1    28    1
     4     1    29    1
     5     2     3    1
     6     2     4    1
     7     2    48    1
     8     4     5    1
     9     4    30    1
    10     4    31    1
    11     5    10   ar
    12     5     6   ar
    13     6     7   ar
    14     6    32    1
    15     7     8   ar
    16     7    33    1
    17     8     9   ar
    18     8    11    1
    19     9    10   ar
    20     9    34    1
    21    10    35    1
    22    11    12    1
    23    12    36    1
    24    12    37    1
    25    12    38    1
    26    13    14    1
    27    13    39    1
    28    13    40    1
    29    13    48    1
    30    14    15    1
    31    14    16    1
    32    14    26    1
    33    16    21   ar
    34    16    17   ar
    35    17    18   ar
    36    17    41    1
    37    18    19   ar
    38    18    42    1
    39    19    20   ar
    40    19    25    1
    41    20    21   ar
    42    20    22    1
    43    21    43    1
    44    22    23   am
    45    22    44    1
    46    23    24    2
    47    23    45    1
    48    25    46    1
    49    26    47    1
    50    48    49    1
    51    48    50    1
