@<TRIPOS>MOLECULE
ZINC00538180
 64 68 0 0 0
SMALL
GASTEIGER

@<TRIPOS>ATOM
      1 C          10.7905   -3.7591    4.0435 C.ar    1  UNL1       -0.0597
      2 C          10.1583   -3.8346    2.8141 C.ar    1  UNL1       -0.0597
      3 C           9.1536   -2.9435    2.4918 C.ar    1  UNL1       -0.0360
      4 C           8.7753   -1.9703    3.4042 C.ar    1  UNL1        0.0700
      5 C           9.4125   -1.8946    4.6443 C.ar    1  UNL1        0.0670
      6 C          10.4208   -2.7930    4.9585 C.ar    1  UNL1       -0.0362
      7 N           8.8276   -0.8348    5.3334 N.ar    1  UNL1       -0.3059
      8 H           9.0639   -0.5390    6.2264 H       1  UNL1        0.1704
      9 C           7.8817   -0.2879    4.5467 C.ar    1  UNL1        0.3278
     10 O           7.1838    0.6626    4.8472 O.2     1  UNL1       -0.2465
     11 N           7.8229   -0.9543    3.3783 N.ar    1  UNL1       -0.2888
     12 C           6.9161   -0.6574    2.2666 C.3     1  UNL1        0.0490
     13 C           7.1606    0.7718    1.7746 C.3     1  UNL1        0.0087
     14 C           6.1708    1.0965    0.6534 C.3     1  UNL1       -0.0300
     15 C           4.5248   -0.4150    1.5908 C.3     1  UNL1       -0.0300
     16 C           5.4654   -0.7847    2.7399 C.3     1  UNL1        0.0087
     17 C           3.8224    1.3983    0.1488 C.3     1  UNL1       -0.0319
     18 C           2.4128    1.0143    0.6032 C.3     1  UNL1       -0.0117
     19 C           1.3969    1.4698   -0.4463 C.3     1  UNL1       -0.0374
     20 C          -0.0127    1.0858    0.0080 C.3     1  UNL1        0.0094
     21 C          -1.0003    1.4234   -1.0791 C.ar    1  UNL1       -0.0398
     22 C          -1.0227    2.6948   -1.6214 C.ar    1  UNL1       -0.0553
     23 C          -1.9246    3.0041   -2.6217 C.ar    1  UNL1       -0.0262
     24 C          -2.8132    2.0431   -3.0734 C.ar    1  UNL1        0.1234
     25 C          -2.7934    0.7715   -2.5258 C.ar    1  UNL1       -0.0262
     26 C          -1.8870    0.4630   -1.5293 C.ar    1  UNL1       -0.0553
     27 F          -3.6985    2.3457   -4.0480 F       1  UNL1       -0.2055
     28 C          -0.3626    1.8493    1.2593 C.ar    1  UNL1       -0.0398
     29 C          -0.2194    3.2239    1.2925 C.ar    1  UNL1       -0.0553
     30 C          -0.5445    3.9256    2.4378 C.ar    1  UNL1       -0.0262
     31 C          -1.0039    3.2502    3.5559 C.ar    1  UNL1        0.1234
     32 C          -1.1419    1.8729    3.5232 C.ar    1  UNL1       -0.0262
     33 C          -0.8212    1.1739    2.3750 C.ar    1  UNL1       -0.0553
     34 F          -1.3176    3.9346    4.6776 F       1  UNL1       -0.2055
     35 H          11.5758   -4.4590    4.2881 H       1  UNL1        0.0618
     36 H          10.4524   -4.5932    2.1039 H       1  UNL1        0.0618
     37 H           8.6627   -3.0054    1.5318 H       1  UNL1        0.0639
     38 H          10.9157   -2.7377    5.9169 H       1  UNL1        0.0639
     39 H           7.0964   -1.3589    1.4521 H       1  UNL1        0.0533
     40 H           8.1794    0.8573    1.3966 H       1  UNL1        0.0337
     41 H           7.0185    1.4705    2.5991 H       1  UNL1        0.0337
     42 H           6.3232    0.4066   -0.1766 H       1  UNL1        0.0815
     43 H           6.3328    2.1185    0.3108 H       1  UNL1        0.0815
     44 H           3.4913   -0.4908    1.9287 H       1  UNL1        0.0815
     45 H           4.6849   -1.0977    0.7563 H       1  UNL1        0.0815
     46 H           5.2731   -1.8114    3.0516 H       1  UNL1        0.0337
     47 H           5.2962   -0.1110    3.5798 H       1  UNL1        0.0337
     48 H           4.0417    0.9147   -0.8031 H       1  UNL1        0.0814
     49 H           3.8836    2.4800    0.0294 H       1  UNL1        0.0814
     50 H           2.1935    1.4980    1.5550 H       1  UNL1        0.0317
     51 H           2.3516   -0.0674    0.7226 H       1  UNL1        0.0317
     52 H           1.6162    0.9862   -1.3982 H       1  UNL1        0.0276
     53 H           1.4581    2.5515   -0.5658 H       1  UNL1        0.0276
     54 H          -0.0496    0.0159    0.2129 H       1  UNL1        0.0397
     55 H          -0.3323    3.4455   -1.2661 H       1  UNL1        0.0621
     56 H          -1.9392    3.9963   -3.0481 H       1  UNL1        0.0646
     57 H          -3.4857    0.0210   -2.8776 H       1  UNL1        0.0646
     58 H          -1.8711   -0.5289   -1.1022 H       1  UNL1        0.0621
     59 H           0.1428    3.7500    0.4216 H       1  UNL1        0.0621
     60 H          -0.4365    4.9999    2.4622 H       1  UNL1        0.0646
     61 H          -1.5005    1.3451    4.3945 H       1  UNL1        0.0646
     62 H          -0.9291    0.0996    2.3492 H       1  UNL1        0.0621
     63 N           4.7942    0.9793    1.1799 N.4     1  UNL1        0.2353
     64 H           4.6972    1.5922    1.9980 H       1  UNL1        0.2033
@<TRIPOS>UNITY_ATOM_ATTR
63 1
charge 1
@<TRIPOS>BOND
     1     1     6   ar
     2     1     2   ar
     3     1    35    1
     4     2     3   ar
     5     2    36    1
     6     3     4   ar
     7     3    37    1
     8     4    11   ar
     9     4     5   ar
    10     5     6   ar
    11     5     7   ar
    12     6    38    1
    13     7     8    1
    14     7     9   ar
    15     9    10    2
    16     9    11   ar
    17    11    12    1
    18    12    16    1
    19    12    13    1
    20    12    39    1
    21    13    14    1
    22    13    40    1
    23    13    41    1
    24    14    42    1
    25    14    43    1
    26    14    63    1
    27    15    16    1
    28    15    44    1
    29    15    45    1
    30    15    63    1
    31    16    46    1
    32    16    47    1
    33    17    18    1
    34    17    48    1
    35    17    49    1
    36    17    63    1
    37    18    19    1
    38    18    50    1
    39    18    51    1
    40    19    20    1
    41    19    52    1
    42    19    53    1
    43    20    21    1
    44    20    28    1
    45    20    54    1
    46    21    26   ar
    47    21    22   ar
    48    22    23   ar
    49    22    55    1
    50    23    24   ar
    51    23    56    1
    52    24    25   ar
    53    24    27    1
    54    25    26   ar
    55    25    57    1
    56    26    58    1
    57    28    33   ar
    58    28    29   ar
    59    29    30   ar
    60    29    59    1
    61    30    31   ar
    62    30    60    1
    63    31    32   ar
    64    31    34    1
    65    32    33   ar
    66    32    61    1
    67    33    62    1
    68    63    64    1
