@<TRIPOS>MOLECULE
ZINC00000367
 42 44 0 0 0
SMALL
GASTEIGER

@<TRIPOS>ATOM
      1 C          -0.5739    3.9655   -0.5912 C.3     1  UNL1       -0.0426
      2 C          -1.9691    2.4065    0.6570 C.3     1  UNL1       -0.0173
      3 H          -2.2410    3.2557    1.2839 H       1  UNL1        0.0852
      4 C          -0.7797    1.6056    1.2417 C.3     1  UNL1       -0.0045
      5 C          -0.0127    1.0858    0.0080 C.3     1  UNL1       -0.0045
      6 C          -0.8047    1.6199   -1.2077 C.3     1  UNL1       -0.0173
      7 H          -0.1566    1.8476   -2.0540 H       1  UNL1        0.0852
      8 C          -1.8879    0.5858   -1.5542 C.3     1  UNL1        0.0277
      9 C          -2.6151    0.1801   -0.2690 C.3     1  UNL1        0.1134
     10 H          -3.4525   -0.4722   -0.5168 H       1  UNL1        0.0738
     11 C          -3.1370    1.4296    0.4461 C.3     1  UNL1        0.0277
     12 O          -1.6942   -0.5265    0.6033 O.3     1  UNL1       -0.4589
     13 C          -1.6201   -1.8590    0.4601 C.2     1  UNL1        0.3409
     14 O          -2.3021   -2.4166   -0.3669 O.2     1  UNL1       -0.2475
     15 C          -0.6862   -2.6597    1.3306 C.3     1  UNL1        0.1767
     16 H           0.3248   -2.2625    1.2403 H       1  UNL1        0.0762
     17 C          -1.1354   -2.5682    2.7662 C.ar    1  UNL1       -0.0084
     18 C          -2.1096   -3.4260    3.2416 C.ar    1  UNL1       -0.0556
     19 C          -2.5185   -3.3450    4.5596 C.ar    1  UNL1       -0.0614
     20 C          -1.9598   -2.4001    5.3998 C.ar    1  UNL1       -0.0617
     21 C          -0.9893   -1.5388    4.9230 C.ar    1  UNL1       -0.0614
     22 C          -0.5773   -1.6227    3.6062 C.ar    1  UNL1       -0.0556
     23 O          -0.7002   -4.0263    0.9133 O.3     1  UNL1       -0.3762
     24 H          -0.1695    4.1910   -1.5780 H       1  UNL1        0.0778
     25 H          -1.1074    4.8361   -0.2096 H       1  UNL1        0.0778
     26 H           0.2416    3.7131    0.0866 H       1  UNL1        0.0778
     27 H          -1.1420    0.7713    1.8424 H       1  UNL1        0.0322
     28 H          -0.1405    2.2552    1.8397 H       1  UNL1        0.0322
     29 H           0.0021   -0.0041    0.0020 H       1  UNL1        0.0322
     30 H           1.0042    1.4783    0.0004 H       1  UNL1        0.0322
     31 H          -2.5999    1.0234   -2.2539 H       1  UNL1        0.0356
     32 H          -1.4240   -0.2921   -2.0039 H       1  UNL1        0.0356
     33 H          -3.5571    1.1489    1.4119 H       1  UNL1        0.0356
     34 H          -3.9051    1.9052   -0.1637 H       1  UNL1        0.0356
     35 H          -2.5488   -4.1617    2.5842 H       1  UNL1        0.0621
     36 H          -3.2765   -4.0181    4.9322 H       1  UNL1        0.0618
     37 H          -2.2812   -2.3350    6.4288 H       1  UNL1        0.0618
     38 H          -0.5528   -0.8006    5.5794 H       1  UNL1        0.0618
     39 H           0.1809   -0.9498    3.2337 H       1  UNL1        0.0621
     40 H          -1.5701   -4.4452    0.9674 H       1  UNL1        0.2110
     41 N          -1.4980    2.7885   -0.6772 N.4     1  UNL1        0.2376
     42 H          -2.2951    3.0286   -1.2783 H       1  UNL1        0.2036
@<TRIPOS>UNITY_ATOM_ATTR
41 1
charge 1
@<TRIPOS>BOND
     1     1    24    1
     2     1    25    1
     3     1    26    1
     4     1    41    1
     5     2     3    1
     6     2    11    1
     7     2     4    1
     8     2    41    1
     9     4     5    1
    10     4    27    1
    11     4    28    1
    12     5     6    1
    13     5    29    1
    14     5    30    1
    15     6     7    1
    16     6     8    1
    17     6    41    1
    18     8     9    1
    19     8    31    1
    20     8    32    1
    21     9    10    1
    22     9    11    1
    23     9    12    1
    24    11    33    1
    25    11    34    1
    26    12    13    1
    27    13    14    2
    28    13    15    1
    29    15    16    1
    30    15    17    1
    31    15    23    1
    32    17    22   ar
    33    17    18   ar
    34    18    19   ar
    35    18    35    1
    36    19    20   ar
    37    19    36    1
    38    20    21   ar
    39    20    37    1
    40    21    22   ar
    41    21    38    1
    42    22    39    1
    43    23    40    1
    44    41    42    1
