@<TRIPOS>MOLECULE
ZINC03831236
 48 49 0 0 0
SMALL
GASTEIGER

@<TRIPOS>ATOM
      1 C           6.3496   -2.3172   -3.1105 C.3     1  UNL1       -0.0216
      2 C           5.6982   -1.8569   -1.8048 C.3     1  UNL1       -0.0249
      3 H           5.5091   -2.7215   -1.1686 H       1  UNL1        0.0848
      4 C           4.3755   -1.1531   -2.1152 C.3     1  UNL1       -0.0060
      5 C           3.6645   -0.8036   -0.8063 C.3     1  UNL1       -0.0226
      6 C           2.3617   -0.1104   -1.1120 C.ar    1  UNL1       -0.0472
      7 C           1.2058   -0.8512   -1.2728 C.ar    1  UNL1       -0.0586
      8 C           0.0108   -0.2153   -1.5532 C.ar    1  UNL1       -0.0615
      9 C          -0.0282    1.1613   -1.6727 C.ar    1  UNL1       -0.0617
     10 C           1.1277    1.9021   -1.5114 C.ar    1  UNL1       -0.0615
     11 C           2.3227    1.2663   -1.2311 C.ar    1  UNL1       -0.0586
     12 C           7.5596   -1.6504   -0.2702 C.3     1  UNL1        0.0055
     13 H           7.8003   -2.6064   -0.7353 H       1  UNL1        0.0877
     14 C           8.8357   -0.8193   -0.1229 C.3     1  UNL1       -0.0189
     15 C           6.9478   -1.8947    1.1107 C.3     1  UNL1        0.1222
     16 H           5.9936   -2.4096    0.9994 H       1  UNL1        0.0701
     17 C           7.8839   -2.7436    1.9318 C.ar    1  UNL1       -0.0136
     18 C           8.9168   -2.1506    2.6341 C.ar    1  UNL1       -0.0525
     19 C           9.7728   -2.9260    3.3920 C.ar    1  UNL1       -0.0198
     20 C           9.6026   -4.3020    3.4387 C.ar    1  UNL1        0.1169
     21 C           8.5689   -4.8952    2.7285 C.ar    1  UNL1       -0.0198
     22 C           7.7119   -4.1148    1.9769 C.ar    1  UNL1       -0.0525
     23 O          10.4473   -5.0677    4.1784 O.3     1  UNL1       -0.5068
     24 O           6.7399   -0.6429    1.7678 O.3     1  UNL1       -0.3816
     25 H           6.6192   -1.4468   -3.7086 H       1  UNL1        0.0284
     26 H           7.2459   -2.8951   -2.8853 H       1  UNL1        0.0284
     27 H           5.6477   -2.9376   -3.6677 H       1  UNL1        0.0284
     28 H           3.7425   -1.8140   -2.7073 H       1  UNL1        0.0323
     29 H           4.5729   -0.2399   -2.6766 H       1  UNL1        0.0323
     30 H           4.2975   -0.1427   -0.2142 H       1  UNL1        0.0315
     31 H           3.4671   -1.7168   -0.2449 H       1  UNL1        0.0315
     32 H           1.2363   -1.9267   -1.1798 H       1  UNL1        0.0620
     33 H          -0.8923   -0.7941   -1.6793 H       1  UNL1        0.0618
     34 H          -0.9609    1.6577   -1.8966 H       1  UNL1        0.0618
     35 H           1.0973    2.9776   -1.6051 H       1  UNL1        0.0618
     36 H           3.2257    1.8450   -1.1050 H       1  UNL1        0.0620
     37 H           8.6080    0.1051    0.4078 H       1  UNL1        0.0285
     38 H           9.5767   -1.3878    0.4390 H       1  UNL1        0.0285
     39 H           9.2316   -0.5832   -1.1107 H       1  UNL1        0.0285
     40 H           9.0519   -1.0799    2.5934 H       1  UNL1        0.0622
     41 H          10.5765   -2.4618    3.9443 H       1  UNL1        0.0654
     42 H           8.4341   -5.9662    2.7635 H       1  UNL1        0.0654
     43 H           6.9071   -4.5761    1.4239 H       1  UNL1        0.0622
     44 H          11.2236   -5.3784    3.6928 H       1  UNL1        0.2921
     45 H           7.5484   -0.1294    1.9007 H       1  UNL1        0.2105
     46 N           6.5970   -0.9148   -1.1117 N.4     1  UNL1        0.2330
     47 H           6.0394   -0.2880   -0.5197 H       1  UNL1        0.2020
     48 H           7.1098   -0.3613   -1.8082 H       1  UNL1        0.2020
@<TRIPOS>UNITY_ATOM_ATTR
46 1
charge 1
@<TRIPOS>BOND
     1     1     2    1
     2     1    25    1
     3     1    26    1
     4     1    27    1
     5     2     3    1
     6     2     4    1
     7     2    46    1
     8     4     5    1
     9     4    28    1
    10     4    29    1
    11     5     6    1
    12     5    30    1
    13     5    31    1
    14     6    11   ar
    15     6     7   ar
    16     7     8   ar
    17     7    32    1
    18     8     9   ar
    19     8    33    1
    20     9    10   ar
    21     9    34    1
    22    10    11   ar
    23    10    35    1
    24    11    36    1
    25    12    13    1
    26    12    14    1
    27    12    15    1
    28    12    46    1
    29    14    37    1
    30    14    38    1
    31    14    39    1
    32    15    16    1
    33    15    17    1
    34    15    24    1
    35    17    22   ar
    36    17    18   ar
    37    18    19   ar
    38    18    40    1
    39    19    20   ar
    40    19    41    1
    41    20    21   ar
    42    20    23    1
    43    21    22   ar
    44    21    42    1
    45    22    43    1
    46    23    44    1
    47    24    45    1
    48    46    47    1
    49    46    48    1
