@<TRIPOS>MOLECULE
ZINC03831484
 44 47 0 0 0
SMALL
GASTEIGER

@<TRIPOS>ATOM
      1 C          -1.8554   -5.6980   -0.7795 C.ar    1  UNL1       -0.0506
      2 C          -3.1361   -6.1921   -0.6251 C.ar    1  UNL1       -0.0179
      3 C          -3.9032   -5.8001    0.4624 C.ar    1  UNL1        0.1406
      4 C          -3.3816   -4.9124    1.3923 C.ar    1  UNL1        0.1182
      5 C          -2.0982   -4.4256    1.2364 C.ar    1  UNL1       -0.0266
      6 C          -1.3377   -4.8138    0.1489 C.ar    1  UNL1        0.0069
      7 C           0.0602   -4.2770   -0.0215 C.3     1  UNL1        0.1907
      8 C           0.6477   -4.7668   -1.3212 C.ar    1  UNL1        0.0349
      9 C           1.7840   -5.5088   -0.9835 C.ar    1  UNL1        0.0827
     10 C           2.5467   -6.0955   -1.9964 C.ar    1  UNL1        0.0473
     11 C           2.1720   -5.9373   -3.3169 C.ar    1  UNL1        0.0476
     12 C           1.0452   -5.2001   -3.6398 C.ar    1  UNL1        0.0473
     13 C           0.2834   -4.6153   -2.6385 C.ar    1  UNL1        0.0414
     14 BR         -1.2552   -3.6106   -3.0850 Br      1  UNL1       -0.0487
     15 BR          0.5430   -4.9902   -5.4508 Br      1  UNL1       -0.0480
     16 BR          3.2030   -6.7307   -4.6893 Br      1  UNL1       -0.0480
     17 BR          4.0864   -7.1033   -1.5615 Br      1  UNL1       -0.0483
     18 C           1.9191   -5.4943    0.4834 C.2     1  UNL1        0.3422
     19 O           2.8044   -6.0471    1.1050 O.2     1  UNL1       -0.2449
     20 O           0.9220   -4.7823    1.0348 O.3     1  UNL1       -0.4400
     21 C           0.0416   -2.7703    0.0025 C.ar    1  UNL1        0.0069
     22 C          -1.0664   -2.0863   -0.4624 C.ar    1  UNL1       -0.0506
     23 C          -1.0883   -0.7052   -0.4357 C.ar    1  UNL1       -0.0179
     24 C           0.0077   -0.0045    0.0465 C.ar    1  UNL1        0.1406
     25 C           1.1184   -0.6932    0.5119 C.ar    1  UNL1        0.1182
     26 C           1.1329   -2.0744    0.4888 C.ar    1  UNL1       -0.0266
     27 S           2.5092    0.1930    1.1324 S.3     1  UNL1       -0.0477
     28 O           2.2243    0.4963    2.4911 O.2     1  UNL1       -0.1802
     29 O           3.6636   -0.5371    0.7407 O.2     1  UNL1       -0.1802
     30 O          -0.0090    1.3543    0.0680 O.3     1  UNL1       -0.5049
     31 S          -4.3524   -4.4126    2.7751 S.3     1  UNL1       -0.0477
     32 O          -4.1978   -5.4200    3.7653 O.2     1  UNL1       -0.1802
     33 O          -4.0378   -3.0487    3.0205 O.2     1  UNL1       -0.1802
     34 O          -5.1633   -6.2851    0.6168 O.3     1  UNL1       -0.5049
     35 H          -1.2578   -6.0028   -1.6259 H       1  UNL1        0.0623
     36 H          -3.5398   -6.8833   -1.3501 H       1  UNL1        0.0655
     37 H          -1.6899   -3.7383    1.9626 H       1  UNL1        0.0642
     38 H          -1.9174   -2.6322   -0.8421 H       1  UNL1        0.0623
     39 H          -1.9559   -0.1715   -0.7944 H       1  UNL1        0.0655
     40 H           1.9972   -2.6110    0.8514 H       1  UNL1        0.0642
     41 H           0.3365    1.7647   -0.7365 H       1  UNL1        0.2922
     42 H          -5.2096   -7.1032    1.1303 H       1  UNL1        0.2922
     43 O           2.5629    1.5217    0.3921 O.co2   1  UNL1       -0.7201
     44 O          -5.8101   -4.4511    2.3392 O.co2   1  UNL1       -0.7201
@<TRIPOS>UNITY_ATOM_ATTR
43 1
charge -1
44 1
charge -1
@<TRIPOS>BOND
     1     1     6   ar
     2     1     2   ar
     3     1    35    1
     4     2     3   ar
     5     2    36    1
     6     3     4   ar
     7     3    34    1
     8     4     5   ar
     9     4    31    1
    10     5     6   ar
    11     5    37    1
    12     6     7    1
    13     7    20    1
    14     7     8    1
    15     7    21    1
    16     8    13   ar
    17     8     9   ar
    18     9    10   ar
    19     9    18    1
    20    10    11   ar
    21    10    17    1
    22    11    12   ar
    23    11    16    1
    24    12    13   ar
    25    12    15    1
    26    13    14    1
    27    18    19    2
    28    18    20    1
    29    21    26   ar
    30    21    22   ar
    31    22    23   ar
    32    22    38    1
    33    23    24   ar
    34    23    39    1
    35    24    25   ar
    36    24    30    1
    37    25    26   ar
    38    25    27    1
    39    26    40    1
    40    27    28    2
    41    27    29    2
    42    27    43    1
    43    30    41    1
    44    31    32    2
    45    31    33    2
    46    31    44    1
    47    34    42    1
