@<TRIPOS>MOLECULE
ZINC00001207
 36 38 0 0 0
SMALL
GASTEIGER

@<TRIPOS>ATOM
      1 C           0.1843    8.4657   -0.6186 C.3     1  UNL1       -0.0608
      2 C           1.2945    7.4171   -0.5241 C.3     1  UNL1       -0.0242
      3 C           0.6880    6.0680   -0.2358 C.ar    1  UNL1       -0.0080
      4 C           0.2678    5.1385   -1.1073 C.ar    1  UNL1       -0.0405
      5 C          -0.2893    3.8907   -0.6075 C.ar    1  UNL1        0.0295
      6 C          -0.3439    3.7859    0.7774 C.ar    1  UNL1        0.0836
      7 S           0.3541    5.3178    1.3462 S.2     1  UNL1       -0.0776
      8 N          -0.8340    2.7623    1.5517 N.am    1  UNL1       -0.2668
      9 C          -0.6680    1.4750    1.2113 C.2     1  UNL1        0.2413
     10 O          -1.1254    0.6073    1.9247 O.2     1  UNL1       -0.2732
     11 C           0.0738    1.0882   -0.0348 C.3     1  UNL1        0.1170
     12 N          -0.6262    1.5579   -1.2244 N.2     1  UNL1       -0.2733
     13 C          -0.7580    2.8115   -1.5103 C.2     1  UNL1        0.0769
     14 C          -1.4024    3.1851   -2.7910 C.ar    1  UNL1        0.0189
     15 C          -0.7883    2.8685   -4.0025 C.ar    1  UNL1       -0.0512
     16 C          -1.3957    3.2142   -5.1919 C.ar    1  UNL1       -0.0611
     17 C          -2.6070    3.8834   -5.1853 C.ar    1  UNL1       -0.0603
     18 C          -3.2190    4.2057   -3.9881 C.ar    1  UNL1       -0.0427
     19 C          -2.6236    3.8603   -2.7901 C.ar    1  UNL1        0.0501
     20 CL         -3.3926    4.2659   -1.2875 Cl      1  UNL1       -0.0829
     21 C          -1.5592    3.0853    2.7830 C.3     1  UNL1        0.0088
     22 H          -0.3590    8.5058    0.3255 H       1  UNL1        0.0233
     23 H           0.6229    9.4415   -0.8271 H       1  UNL1        0.0233
     24 H          -0.5020    8.1967   -1.4216 H       1  UNL1        0.0233
     25 H           1.9808    7.6861    0.2789 H       1  UNL1        0.0316
     26 H           1.8378    7.3770   -1.4682 H       1  UNL1        0.0316
     27 H           0.3420    5.3150   -2.1702 H       1  UNL1        0.0633
     28 H           0.1622    0.0026   -0.0766 H       1  UNL1        0.0605
     29 H           1.0709    1.5278   -0.0091 H       1  UNL1        0.0605
     30 H           0.1592    2.3503   -4.0095 H       1  UNL1        0.0625
     31 H          -0.9224    2.9660   -6.1304 H       1  UNL1        0.0618
     32 H          -3.0761    4.1554   -6.1193 H       1  UNL1        0.0618
     33 H          -4.1640    4.7286   -3.9894 H       1  UNL1        0.0632
     34 H          -2.6215    3.1898    2.5621 H       1  UNL1        0.0433
     35 H          -1.4161    2.2854    3.5094 H       1  UNL1        0.0433
     36 H          -1.1796    4.0210    3.1934 H       1  UNL1        0.0433
@<TRIPOS>BOND
     1     1     2    1
     2     1    22    1
     3     1    23    1
     4     1    24    1
     5     2     3    1
     6     2    25    1
     7     2    26    1
     8     3     7   ar
     9     3     4   ar
    10     4     5   ar
    11     4    27    1
    12     5    13    1
    13     5     6   ar
    14     6     7   ar
    15     6     8    1
    16     8     9   am
    17     8    21    1
    18     9    10    2
    19     9    11    1
    20    11    12    1
    21    11    28    1
    22    11    29    1
    23    12    13    2
    24    13    14    1
    25    14    19   ar
    26    14    15   ar
    27    15    16   ar
    28    15    30    1
    29    16    17   ar
    30    16    31    1
    31    17    18   ar
    32    17    32    1
    33    18    19   ar
    34    18    33    1
    35    19    20    1
    36    21    34    1
    37    21    35    1
    38    21    36    1
