@<TRIPOS>MOLECULE
ZINC03812869
 38 40 0 0 0
SMALL
GASTEIGER

@<TRIPOS>ATOM
      1 C          -2.4497   -5.3701    1.4649 C.ar    1  UNL1       -0.0617
      2 C          -2.0592   -4.2644    2.1969 C.ar    1  UNL1       -0.0613
      3 C          -0.7217   -3.9236    2.2739 C.ar    1  UNL1       -0.0528
      4 C           0.2252   -4.6885    1.6189 C.ar    1  UNL1        0.0091
      5 C          -0.1658   -5.7912    0.8826 C.ar    1  UNL1       -0.0528
      6 C          -1.5028   -6.1350    0.8099 C.ar    1  UNL1       -0.0613
      7 CA          1.6832   -4.3168    1.7024 C.3     1  UNL1        0.0789
      8 HA          1.8453   -3.6741    2.5677 H       1  UNL1        0.1002
      9 C           2.0873   -3.5836    0.4494 C.2     1  UNL1        0.2665
     10 O           2.6744   -4.1712   -0.4344 O.2     1  UNL1       -0.2692
     11 N           1.7963   -2.2750    0.3108 N.am    1  UNL1       -0.2968
     12 CA          2.1891   -1.5622   -0.9074 C.3     1  UNL1        0.1285
     13 HA          2.3220   -2.2253   -1.7622 H       1  UNL1        0.0622
     14 C           1.3253   -0.3419   -1.2079 C.3     1  UNL1        0.1041
     15 H           1.0285   -0.2204   -2.2497 H       1  UNL1        0.0644
     16 N           2.5021    0.4593   -0.7430 N.am    1  UNL1       -0.2523
     17 C           3.3395   -0.5914   -0.7016 C.2     1  UNL1        0.2439
     18 O           4.5374   -0.7152   -0.5573 O.2     1  UNL1       -0.2731
     19 CA          2.4918    1.8114   -0.3549 C.2     1  UNL1        0.0749
     20 C           1.3542    2.3950    0.0020 C.2     1  UNL1        0.0514
     21 C          -0.0226    1.8153    0.0120 C.3     1  UNL1        0.0331
     22 S           0.0021   -0.0041    0.0020 S.3     1  UNL1       -0.1300
     23 CL          1.4831    4.0454    0.5248 Cl      1  UNL1       -0.0854
     24 C           3.7455    2.5811   -0.3450 C.2     1  UNL1        0.0871
     25 O           4.7881    2.0487   -0.6719 O.co2   1  UNL1       -0.5433
     26 H          -3.4947   -5.6361    1.4045 H       1  UNL1        0.0618
     27 H          -2.7991   -3.6665    2.7084 H       1  UNL1        0.0618
     28 H          -0.4167   -3.0595    2.8455 H       1  UNL1        0.0622
     29 H           0.5736   -6.3863    0.3673 H       1  UNL1        0.0622
     30 H          -1.8079   -6.9987    0.2377 H       1  UNL1        0.0618
     31 H           1.3267   -1.8050    1.0176 H       1  UNL1        0.1497
     32 H          -0.5615    2.1671   -0.8677 H       1  UNL1        0.0435
     33 H          -0.5446    2.1576    0.9056 H       1  UNL1        0.0435
     34 H1          2.2855   -6.0113    2.7045 H       1  UNL1        0.2005
     35 H2          2.3594   -6.1482    1.0487 H       1  UNL1        0.2005
     36 OXT         3.7380    3.8770    0.0266 O.co2   1  UNL1       -0.5433
     37 N           2.5154   -5.5251    1.8394 N.4     1  UNL1        0.2307
     38 H3          3.5051   -5.2527    1.8610 H       1  UNL1        0.2005
@<TRIPOS>UNITY_ATOM_ATTR
36 1
charge -1
37 1
charge 1
@<TRIPOS>BOND
     1     1     6   ar
     2     1     2   ar
     3     1    26    1
     4     2     3   ar
     5     2    27    1
     6     3     4   ar
     7     3    28    1
     8     4     5   ar
     9     4     7    1
    10     5     6   ar
    11     5    29    1
    12     6    30    1
    13     7     8    1
    14     7     9    1
    15     7    37    1
    16     9    10    2
    17     9    11   am
    18    11    12    1
    19    11    31    1
    20    12    13    1
    21    12    17    1
    22    12    14    1
    23    14    15    1
    24    14    22    1
    25    14    16    1
    26    16    17   am
    27    16    19    1
    28    17    18    2
    29    19    20    2
    30    19    24    1
    31    20    21    1
    32    20    23    1
    33    21    22    1
    34    21    32    1
    35    21    33    1
    36    24    25   ar
    37    24    36   ar
    38    34    37    1
    39    35    37    1
    40    37    38    1
