@<TRIPOS>MOLECULE
ZINC00000582
 46 48 0 0 0
SMALL
GASTEIGER

@<TRIPOS>ATOM
      1 C          -1.0695    0.5885   -2.6932 C.3     1  UNL1       -0.0561
      2 C          -1.1456   -0.7736   -2.0006 C.3     1  UNL1        0.0124
      3 H          -0.2347   -1.3364   -2.2046 H       1  UNL1        0.0365
      4 C          -1.2926   -0.5708   -0.4913 C.3     1  UNL1        0.0248
      5 N          -0.0827    0.0650    0.0361 N.pl3   1  UNL1       -0.2966
      6 C          -0.1173    1.4427    0.1846 C.ar    1  UNL1        0.0595
      7 C          -1.3529    2.0833    0.2761 C.ar    1  UNL1       -0.0385
      8 C          -1.4168    3.4529    0.4222 C.ar    1  UNL1       -0.0599
      9 C          -0.2570    4.2046    0.4704 C.ar    1  UNL1       -0.0598
     10 C           0.9730    3.5778    0.3790 C.ar    1  UNL1       -0.0346
     11 C           1.0407    2.2080    0.2396 C.ar    1  UNL1        0.1149
     12 S           2.6092    1.4058    0.1315 S.O2    1  UNL1        0.0286
     13 O           3.3824    1.8629    1.2326 O.2     1  UNL1       -0.1642
     14 O           3.0447    1.5310   -1.2153 O.2     1  UNL1       -0.1642
     15 C           2.2876   -0.3075    0.4082 C.ar    1  UNL1        0.1149
     16 C           0.9805   -0.7720    0.3364 C.ar    1  UNL1        0.0595
     17 C           0.7325   -2.1244    0.5713 C.ar    1  UNL1       -0.0385
     18 C           1.7724   -2.9814    0.8637 C.ar    1  UNL1       -0.0599
     19 C           3.0703   -2.5080    0.9266 C.ar    1  UNL1       -0.0598
     20 C           3.3253   -1.1676    0.6976 C.ar    1  UNL1       -0.0346
     21 C          -2.3535   -1.5487   -2.5310 C.3     1  UNL1       -0.0283
     22 C          -3.6547   -3.5564   -2.1588 C.3     1  UNL1       -0.0433
     23 C          -1.2680   -3.7130   -2.5358 C.3     1  UNL1       -0.0433
     24 H          -0.1519    1.0964   -2.3962 H       1  UNL1        0.0235
     25 H          -1.0732    0.4473   -3.7740 H       1  UNL1        0.0235
     26 H          -1.9293    1.1923   -2.4028 H       1  UNL1        0.0235
     27 H          -1.4359   -1.5368   -0.0071 H       1  UNL1        0.0472
     28 H          -2.1542    0.0666   -0.2925 H       1  UNL1        0.0472
     29 H          -2.2634    1.5038    0.2360 H       1  UNL1        0.0637
     30 H          -2.3772    3.9413    0.4959 H       1  UNL1        0.0618
     31 H          -0.3113    5.2778    0.5788 H       1  UNL1        0.0618
     32 H           1.8806    4.1619    0.4172 H       1  UNL1        0.0637
     33 H          -0.2782   -2.5020    0.5236 H       1  UNL1        0.0637
     34 H           1.5725   -4.0272    1.0441 H       1  UNL1        0.0618
     35 H           3.8825   -3.1828    1.1534 H       1  UNL1        0.0618
     36 H           4.3379   -0.7950    0.7454 H       1  UNL1        0.0637
     37 H          -3.2703   -1.0346   -2.2425 H       1  UNL1        0.0817
     38 H          -2.2976   -1.6092   -3.6179 H       1  UNL1        0.0817
     39 H          -3.8719   -3.6234   -3.2248 H       1  UNL1        0.0777
     40 H          -3.6266   -4.5582   -1.7301 H       1  UNL1        0.0777
     41 H          -4.4313   -2.9718   -1.6657 H       1  UNL1        0.0777
     42 H          -0.3068   -3.2955   -2.2360 H       1  UNL1        0.0777
     43 H          -1.3485   -4.7374   -2.1723 H       1  UNL1        0.0777
     44 H          -1.3438   -3.7064   -3.6232 H       1  UNL1        0.0777
     45 N          -2.3483   -2.9017   -1.9362 N.4     1  UNL1        0.2311
     46 H          -2.1835   -2.8213   -0.9259 H       1  UNL1        0.2028
@<TRIPOS>UNITY_ATOM_ATTR
45 1
charge 1
@<TRIPOS>BOND
     1     1     2    1
     2     1    24    1
     3     1    25    1
     4     1    26    1
     5     2     3    1
     6     2     4    1
     7     2    21    1
     8     4     5    1
     9     4    27    1
    10     4    28    1
    11     5    16    1
    12     5     6    1
    13     6    11   ar
    14     6     7   ar
    15     7     8   ar
    16     7    29    1
    17     8     9   ar
    18     8    30    1
    19     9    10   ar
    20     9    31    1
    21    10    11   ar
    22    10    32    1
    23    11    12    1
    24    12    13    2
    25    12    14    2
    26    12    15    1
    27    15    20   ar
    28    15    16   ar
    29    16    17   ar
    30    17    18   ar
    31    17    33    1
    32    18    19   ar
    33    18    34    1
    34    19    20   ar
    35    19    35    1
    36    20    36    1
    37    21    37    1
    38    21    38    1
    39    21    45    1
    40    22    39    1
    41    22    40    1
    42    22    41    1
    43    22    45    1
    44    23    42    1
    45    23    43    1
    46    23    44    1
    47    23    45    1
    48    45    46    1
