@<TRIPOS>MOLECULE
ZINC00119839
 26 28 0 0 0
SMALL
GASTEIGER

@<TRIPOS>ATOM
      1 C           6.0087   -2.0447   -3.5776 C.ar    1  UNL1       -0.0617
      2 C           6.7012   -1.9330   -2.3865 C.ar    1  UNL1       -0.0614
      3 C           6.0454   -1.5203   -1.2418 C.ar    1  UNL1       -0.0565
      4 C           4.6970   -1.2192   -1.2882 C.ar    1  UNL1       -0.0216
      5 C           4.0033   -1.3360   -2.4781 C.ar    1  UNL1       -0.0565
      6 C           4.6603   -1.7437   -3.6240 C.ar    1  UNL1       -0.0614
      7 C           3.9820   -0.7696   -0.0401 C.3     1  UNL1        0.0939
      8 H           4.5163   -1.1044    0.8490 H       1  UNL1        0.0611
      9 C           3.8251    0.7581   -0.0304 C.3     1  UNL1        0.0405
     10 N           2.3469    0.9676   -0.0152 N.pl3   1  UNL1       -0.3070
     11 C           1.4778    2.1461   -0.0005 C.3     1  UNL1        0.0234
     12 C          -0.0227    1.8256    0.0121 C.3     1  UNL1        0.0167
     13 S           0.0021   -0.0041    0.0020 S.3     1  UNL1       -0.0892
     14 C           1.7669   -0.2723   -0.0163 C.2     1  UNL1        0.1526
     15 N           2.6048   -1.2684   -0.0300 N.2     1  UNL1       -0.2537
     16 H           6.5210   -2.3676   -4.4719 H       1  UNL1        0.0618
     17 H           7.7546   -2.1686   -2.3502 H       1  UNL1        0.0618
     18 H           6.5864   -1.4333   -0.3111 H       1  UNL1        0.0621
     19 H           2.9489   -1.1050   -2.5134 H       1  UNL1        0.0621
     20 H           4.1191   -1.8313   -4.5545 H       1  UNL1        0.0618
     21 H           4.2637    1.1933   -0.9284 H       1  UNL1        0.0489
     22 H           4.2808    1.1837    0.8637 H       1  UNL1        0.0489
     23 H           1.6958    2.7480   -0.8827 H       1  UNL1        0.0472
     24 H           1.7127    2.7385    0.8838 H       1  UNL1        0.0472
     25 H          -0.5141    2.2156   -0.8793 H       1  UNL1        0.0396
     26 H          -0.4969    2.2060    0.9168 H       1  UNL1        0.0396
@<TRIPOS>BOND
     1     1     6   ar
     2     1     2   ar
     3     1    16    1
     4     2     3   ar
     5     2    17    1
     6     3     4   ar
     7     3    18    1
     8     4     5   ar
     9     4     7    1
    10     5     6   ar
    11     5    19    1
    12     6    20    1
    13     7     8    1
    14     7    15    1
    15     7     9    1
    16     9    10    1
    17     9    21    1
    18     9    22    1
    19    10    14    1
    20    10    11    1
    21    11    12    1
    22    11    23    1
    23    11    24    1
    24    12    13    1
    25    12    25    1
    26    12    26    1
    27    13    14    1
    28    14    15    2
