@<TRIPOS>MOLECULE
ZINC11616652
 55 58 0 0 0
SMALL
GASTEIGER

@<TRIPOS>ATOM
      1 C           7.0686    7.7514   -4.0086 C.3     1  UNL1       -0.0553
      2 C           7.3513    6.6222   -3.0157 C.3     1  UNL1       -0.0032
      3 C           8.0268    5.4585   -3.7450 C.3     1  UNL1       -0.0363
      4 C           9.3613    5.9452   -4.3197 C.3     1  UNL1        0.0107
      5 C          10.2054    6.4979   -3.2004 C.2     1  UNL1        0.1564
      6 O          11.4165    6.4618   -3.2867 O.2     1  UNL1       -0.2927
      7 C           9.6067    7.0537   -2.0590 C.2     1  UNL1       -0.0155
      8 C           8.2606    7.1280   -1.9252 C.2     1  UNL1       -0.0382
      9 C           7.6813    7.6979   -0.7106 C.2     1  UNL1       -0.0616
     10 C           6.3638    7.7757   -0.5474 C.2     1  UNL1       -0.0801
     11 C           5.3939    7.2832   -1.6010 C.3     1  UNL1       -0.0156
     12 H           5.1738    8.1053   -2.2820 H       1  UNL1        0.0349
     13 C           6.0370    6.1475   -2.3961 C.3     1  UNL1       -0.0251
     14 H           5.3577    5.8224   -3.1841 H       1  UNL1        0.0315
     15 C           6.3062    4.9835   -1.4373 C.3     1  UNL1       -0.0483
     16 C           4.9668    4.4670   -0.9177 C.3     1  UNL1       -0.0444
     17 C           4.2262    5.5541   -0.1355 C.3     1  UNL1        0.0001
     18 C           4.0933    6.8389   -0.9723 C.3     1  UNL1       -0.0264
     19 H           3.7064    7.6395   -0.3418 H       1  UNL1        0.0313
     20 C           3.0248    6.4759   -2.0200 C.3     1  UNL1       -0.0465
     21 C           2.0013    5.6417   -1.2155 C.3     1  UNL1       -0.0232
     22 C           2.7554    5.0768    0.0030 C.3     1  UNL1        0.0721
     23 C           2.6961    3.5480   -0.0046 C.3     1  UNL1       -0.0184
     24 C           1.2350    3.0943    0.0069 C.3     1  UNL1       -0.0106
     25 C           1.1765    1.5884   -0.0006 C.2     1  UNL1        0.0418
     26 O           2.1986    0.9442   -0.0139 O.co2   1  UNL1       -0.5498
     27 O           2.1867    5.5837    1.2120 O.3     1  UNL1       -0.3880
     28 C           4.8726    5.8066    1.2280 C.3     1  UNL1       -0.0567
     29 H           6.5914    8.5818   -3.4883 H       1  UNL1        0.0238
     30 H           8.0058    8.0898   -4.4504 H       1  UNL1        0.0238
     31 H           6.4072    7.3869   -4.7946 H       1  UNL1        0.0238
     32 H           8.2062    4.6430   -3.0444 H       1  UNL1        0.0278
     33 H           7.3834    5.1110   -4.5533 H       1  UNL1        0.0278
     34 H           9.8358    5.1799   -4.7547 H       1  UNL1        0.0345
     35 H           9.1775    6.7260   -5.0577 H       1  UNL1        0.0345
     36 H          10.2355    7.4329   -1.2671 H       1  UNL1        0.0655
     37 H           8.3347    8.0621    0.0683 H       1  UNL1        0.0617
     38 H           5.9717    8.2009    0.3647 H       1  UNL1        0.0575
     39 H           6.9152    5.3293   -0.6021 H       1  UNL1        0.0269
     40 H           6.8271    4.1854   -1.9662 H       1  UNL1        0.0269
     41 H           5.1418    3.6123   -0.2644 H       1  UNL1        0.0272
     42 H           4.3529    4.1519   -1.7615 H       1  UNL1        0.0272
     43 H           2.5574    7.3760   -2.4194 H       1  UNL1        0.0269
     44 H           3.4609    5.8823   -2.8234 H       1  UNL1        0.0269
     45 H           1.6195    4.8260   -1.8294 H       1  UNL1        0.0293
     46 H           1.1796    6.2769   -0.8845 H       1  UNL1        0.0293
     47 H           3.2039    3.1603    0.8785 H       1  UNL1        0.0297
     48 H           3.1869    3.1698   -0.9014 H       1  UNL1        0.0297
     49 H           0.7272    3.4820   -0.8762 H       1  UNL1        0.0326
     50 H           0.7441    3.4725    0.9036 H       1  UNL1        0.0326
     51 H           1.2637    5.3300    1.3491 H       1  UNL1        0.2102
     52 H           4.8887    4.8788    1.7998 H       1  UNL1        0.0236
     53 H           5.8926    6.1637    1.0860 H       1  UNL1        0.0236
     54 H           4.2969    6.5572    1.7696 H       1  UNL1        0.0236
     55 O          -0.0110    0.9628    0.0073 O.co2   1  UNL1       -0.5498
@<TRIPOS>UNITY_ATOM_ATTR
55 1
charge -1
@<TRIPOS>BOND
     1     1     2    1
     2     1    29    1
     3     1    30    1
     4     1    31    1
     5     2     8    1
     6     2    13    1
     7     2     3    1
     8     3     4    1
     9     3    32    1
    10     3    33    1
    11     4     5    1
    12     4    34    1
    13     4    35    1
    14     5     6    2
    15     5     7    1
    16     7     8    2
    17     7    36    1
    18     8     9    1
    19     9    10    2
    20     9    37    1
    21    10    11    1
    22    10    38    1
    23    11    12    1
    24    11    18    1
    25    11    13    1
    26    13    14    1
    27    13    15    1
    28    15    16    1
    29    15    39    1
    30    15    40    1
    31    16    17    1
    32    16    41    1
    33    16    42    1
    34    17    22    1
    35    17    18    1
    36    17    28    1
    37    18    19    1
    38    18    20    1
    39    20    21    1
    40    20    43    1
    41    20    44    1
    42    21    22    1
    43    21    45    1
    44    21    46    1
    45    22    23    1
    46    22    27    1
    47    23    24    1
    48    23    47    1
    49    23    48    1
    50    24    25    1
    51    24    49    1
    52    24    50    1
    53    25    26   ar
    54    25    55   ar
    55    27    51    1
    56    28    52    1
    57    28    53    1
    58    28    54    1
