@<TRIPOS>MOLECULE
ZINC00006310
 29 30 0 0 0
SMALL
GASTEIGER

@<TRIPOS>ATOM
      1 C          -0.0167    1.3768    0.0096 C.ar    1  UNL1       -0.0392
      2 C           0.0021   -0.0041    0.0020 C.ar    1  UNL1       -0.0347
      3 C           1.2080   -0.6807   -0.0136 C.ar    1  UNL1        0.0937
      4 C           2.3988    0.0223   -0.0212 C.ar    1  UNL1       -0.0347
      5 C           2.3873    1.4033   -0.0127 C.ar    1  UNL1       -0.0392
      6 C           1.1777    2.0861    0.0020 C.ar    1  UNL1        0.0246
      7 N           1.1624    3.4828    0.0092 N.pl3   1  UNL1       -0.3580
      8 S           1.2273   -2.4426   -0.0232 S.O2    1  UNL1        0.0251
      9 O           2.4824   -2.8379    0.5130 O.2     1  UNL1       -0.1643
     10 O          -0.0080   -2.8653    0.5376 O.2     1  UNL1       -0.1643
     11 C           1.2163   -2.9545   -1.7092 C.ar    1  UNL1        0.0937
     12 C           0.0137   -3.1736   -2.3558 C.ar    1  UNL1       -0.0347
     13 C           0.0014   -3.5702   -3.6786 C.ar    1  UNL1       -0.0392
     14 C           1.1990   -3.7592   -4.3565 C.ar    1  UNL1        0.0246
     15 C           2.4053   -3.5433   -3.7025 C.ar    1  UNL1       -0.0392
     16 C           2.4103   -3.1417   -2.3811 C.ar    1  UNL1       -0.0347
     17 N           1.1903   -4.1650   -5.6930 N.pl3   1  UNL1       -0.3580
     18 H          -0.9588    1.9047    0.0170 H       1  UNL1        0.0636
     19 H          -0.9261   -0.5561    0.0079 H       1  UNL1        0.0637
     20 H           3.3389   -0.5092   -0.0334 H       1  UNL1        0.0637
     21 H           3.3177    1.9517   -0.0180 H       1  UNL1        0.0636
     22 H           0.3171    3.9585    0.0195 H       1  UNL1        0.1423
     23 H           1.9970    3.9770    0.0039 H       1  UNL1        0.1423
     24 H          -0.9170   -3.0307   -1.8268 H       1  UNL1        0.0637
     25 H          -0.9383   -3.7368   -4.1843 H       1  UNL1        0.0636
     26 H           3.3382   -3.6897   -4.2265 H       1  UNL1        0.0636
     27 H           3.3478   -2.9733   -1.8721 H       1  UNL1        0.0637
     28 H           2.0272   -4.2963   -6.1655 H       1  UNL1        0.1423
     29 H           0.3473   -4.3154   -6.1487 H       1  UNL1        0.1423
@<TRIPOS>BOND
     1     1     6   ar
     2     1     2   ar
     3     1    18    1
     4     2     3   ar
     5     2    19    1
     6     3     4   ar
     7     3     8    1
     8     4     5   ar
     9     4    20    1
    10     5     6   ar
    11     5    21    1
    12     6     7    1
    13     7    22    1
    14     7    23    1
    15     8     9    2
    16     8    10    2
    17     8    11    1
    18    11    16   ar
    19    11    12   ar
    20    12    13   ar
    21    12    24    1
    22    13    14   ar
    23    13    25    1
    24    14    15   ar
    25    14    17    1
    26    15    16   ar
    27    15    26    1
    28    16    27    1
    29    17    28    1
    30    17    29    1
