@<TRIPOS>MOLECULE
ZINC11616239
 71 74 0 0 0
SMALL
GASTEIGER

@<TRIPOS>ATOM
      1 C           2.0777   -4.1300   -2.9712 C.3     1  UNL1       -0.0653
      2 C           1.3601   -3.8341   -1.6527 C.3     1  UNL1       -0.0554
      3 C          -0.1364   -4.1083   -1.8138 C.3     1  UNL1       -0.0432
      4 C          -0.8540   -3.8124   -0.4953 C.3     1  UNL1        0.0450
      5 C          -2.3281   -4.0825   -0.6540 C.2     1  UNL1        0.3080
      6 O          -2.7604   -4.4717   -1.7131 O.2     1  UNL1       -0.2508
      7 O          -3.1608   -3.8907    0.3811 O.3     1  UNL1       -0.4494
      8 C          -4.5439   -4.2931    0.1979 C.3     1  UNL1        0.1810
      9 C          -5.3809   -3.8835    1.4240 C.3     1  UNL1        0.0041
     10 H          -6.1756   -3.2010    1.1226 H       1  UNL1        0.0341
     11 C          -5.9890   -5.1840    1.9980 C.3     1  UNL1       -0.0426
     12 C          -5.9807   -6.1450    0.7948 C.3     1  UNL1       -0.0253
     13 H          -6.7995   -5.8862    0.1235 H       1  UNL1        0.0311
     14 C          -4.6408   -5.8391    0.1009 C.3     1  UNL1        0.0208
     15 C          -3.4700   -6.4032    0.9092 C.3     1  UNL1       -0.0141
     16 C          -3.6653   -7.8917    1.1861 C.3     1  UNL1        0.0910
     17 H          -2.8066   -8.2777    1.7355 H       1  UNL1        0.0626
     18 C          -4.9351   -8.0676    2.0255 C.3     1  UNL1        0.1526
     19 C          -6.1264   -7.5900    1.2039 C.3     1  UNL1        0.0003
     20 H          -6.2054   -8.2045    0.3071 H       1  UNL1        0.0336
     21 C          -7.3987   -7.7902    2.0376 C.3     1  UNL1       -0.0432
     22 C          -7.6933   -9.2906    2.0820 C.3     1  UNL1       -0.0301
     23 C          -6.4646  -10.0552    2.4791 C.2     1  UNL1       -0.0532
     24 C          -6.6022  -11.3612    2.8057 C.2     1  UNL1       -0.0148
     25 C          -5.3245  -12.0741    3.0793 C.2     1  UNL1        0.1787
     26 O          -5.2011  -12.8712    3.9904 O.2     1  UNL1       -0.2879
     27 C          -4.2090  -11.7373    2.1523 C.2     1  UNL1       -0.0180
     28 C          -4.0993  -10.4274    1.8420 C.2     1  UNL1       -0.0674
     29 C          -5.0849   -9.4909    2.4838 C.3     1  UNL1        0.0443
     30 C          -4.6892   -9.4706    3.9616 C.3     1  UNL1       -0.0493
     31 F          -4.8341   -7.2479    3.1547 F       1  UNL1       -0.2377
     32 O          -3.8006   -8.5962   -0.0498 O.3     1  UNL1       -0.3886
     33 C          -4.6331   -6.3195   -1.3517 C.3     1  UNL1       -0.0551
     34 C          -4.4858   -3.2169    2.4707 C.3     1  UNL1       -0.0583
     35 C          -5.1063   -3.6589   -1.0481 C.2     1  UNL1        0.2024
     36 O          -6.0421   -4.1692   -1.6158 O.2     1  UNL1       -0.2907
     37 C          -4.5009   -2.3878   -1.5857 C.3     1  UNL1        0.1063
     38 O          -5.2875   -1.9109   -2.6793 O.3     1  UNL1       -0.3874
     39 H           3.1439   -3.9346   -2.8564 H       1  UNL1        0.0230
     40 H           1.9268   -5.1754   -3.2403 H       1  UNL1        0.0230
     41 H           1.6737   -3.4907   -3.7561 H       1  UNL1        0.0230
     42 H           1.7642   -4.4734   -0.8677 H       1  UNL1        0.0263
     43 H           1.5111   -2.7887   -1.3835 H       1  UNL1        0.0263
     44 H          -0.5405   -3.4690   -2.5988 H       1  UNL1        0.0270
     45 H          -0.2874   -5.1537   -2.0830 H       1  UNL1        0.0270
     46 H          -0.4500   -4.4517    0.2896 H       1  UNL1        0.0377
     47 H          -0.7031   -2.7670   -0.2262 H       1  UNL1        0.0377
     48 H          -5.3690   -5.5740    2.8052 H       1  UNL1        0.0272
     49 H          -7.0079   -5.0111    2.3443 H       1  UNL1        0.0272
     50 H          -2.5462   -6.2614    0.3483 H       1  UNL1        0.0298
     51 H          -3.3985   -5.8690    1.8566 H       1  UNL1        0.0298
     52 H          -8.2320   -7.2636    1.5726 H       1  UNL1        0.0272
     53 H          -7.2410   -7.4145    3.0486 H       1  UNL1        0.0272
     54 H          -8.0217   -9.6226    1.0971 H       1  UNL1        0.0310
     55 H          -8.4857   -9.4809    2.8059 H       1  UNL1        0.0310
     56 H          -7.5644  -11.8483    2.8637 H       1  UNL1        0.0656
     57 H          -3.5371  -12.4851    1.7576 H       1  UNL1        0.0653
     58 H          -3.3385  -10.0691    1.1643 H       1  UNL1        0.0583
     59 H          -5.3530   -8.7992    4.5063 H       1  UNL1        0.0242
     60 H          -4.7716  -10.4763    4.3737 H       1  UNL1        0.0242
     61 H          -3.6610   -9.1218    4.0576 H       1  UNL1        0.0242
     62 H          -3.0352   -8.5144   -0.6351 H       1  UNL1        0.2099
     63 H          -3.6547   -6.1282   -1.7925 H       1  UNL1        0.0237
     64 H          -4.8424   -7.3888   -1.3819 H       1  UNL1        0.0237
     65 H          -5.3967   -5.7837   -1.9156 H       1  UNL1        0.0237
     66 H          -3.9599   -2.3769    2.0170 H       1  UNL1        0.0234
     67 H          -5.0988   -2.8581    3.2975 H       1  UNL1        0.0234
     68 H          -3.7611   -3.9409    2.8431 H       1  UNL1        0.0234
     69 H          -4.4807   -1.6967   -0.8633 H       1  UNL1        0.0638
     70 H          -3.4851   -2.5855   -1.9278 H       1  UNL1        0.0638
     71 H          -4.9557   -1.0936   -3.0755 H       1  UNL1        0.2100
@<TRIPOS>BOND
     1     1     2    1
     2     1    39    1
     3     1    40    1
     4     1    41    1
     5     2     3    1
     6     2    42    1
     7     2    43    1
     8     3     4    1
     9     3    44    1
    10     3    45    1
    11     4     5    1
    12     4    46    1
    13     4    47    1
    14     5     6    2
    15     5     7    1
    16     7     8    1
    17     8    14    1
    18     8     9    1
    19     8    35    1
    20     9    10    1
    21     9    11    1
    22     9    34    1
    23    11    12    1
    24    11    48    1
    25    11    49    1
    26    12    13    1
    27    12    19    1
    28    12    14    1
    29    14    15    1
    30    14    33    1
    31    15    16    1
    32    15    50    1
    33    15    51    1
    34    16    17    1
    35    16    18    1
    36    16    32    1
    37    18    29    1
    38    18    19    1
    39    18    31    1
    40    19    20    1
    41    19    21    1
    42    21    22    1
    43    21    52    1
    44    21    53    1
    45    22    23    1
    46    22    54    1
    47    22    55    1
    48    23    29    1
    49    23    24    2
    50    24    25    1
    51    24    56    1
    52    25    26    2
    53    25    27    1
    54    27    28    2
    55    27    57    1
    56    28    29    1
    57    28    58    1
    58    29    30    1
    59    30    59    1
    60    30    60    1
    61    30    61    1
    62    32    62    1
    63    33    63    1
    64    33    64    1
    65    33    65    1
    66    34    66    1
    67    34    67    1
    68    34    68    1
    69    35    36    2
    70    35    37    1
    71    37    38    1
    72    37    69    1
    73    37    70    1
    74    38    71    1
