@<TRIPOS>MOLECULE
ZINC03831538
 39 41 0 0 0
SMALL
GASTEIGER

@<TRIPOS>ATOM
      1 C          -2.5085    2.1540    8.3987 C.3     1  UNL1       -0.0486
      2 C          -2.1338    2.2502    6.9184 C.3     1  UNL1        0.0366
      3 CA         -0.6109    2.5231    6.7274 C.3     1  UNL1        0.0807
      4 HA         -0.0471    1.9628    7.4732 H       1  UNL1        0.0576
      5 N          -0.1945    2.1044    5.3870 N.am    1  UNL1       -0.2761
      6 C          -0.8480    0.8786    4.8799 C.3     1  UNL1        0.1003
      7 H          -0.2179    0.0189    4.6519 H       1  UNL1        0.0640
      8 S          -2.2114    0.6005    6.0866 S.3     1  UNL1       -0.1275
      9 CA         -1.2555    1.7742    3.7087 C.3     1  UNL1        0.1277
     10 HA         -2.3281    1.9618    3.6600 H       1  UNL1        0.0622
     11 C          -0.4806    2.9070    4.3349 C.2     1  UNL1        0.2401
     12 O          -0.2229    4.0512    4.0264 O.2     1  UNL1       -0.2734
     13 N          -0.7024    1.3352    2.4251 N.am    1  UNL1       -0.3010
     14 C          -1.3151    1.6782    1.2747 C.2     1  UNL1        0.2267
     15 O          -2.3242    2.3503    1.3021 O.2     1  UNL1       -0.2747
     16 C          -0.7462    1.2265   -0.0457 C.3     1  UNL1        0.1002
     17 H          -0.7194    0.1373   -0.0762 H       1  UNL1        0.0504
     18 C          -1.6120    1.7394   -1.1674 C.ar    1  UNL1       -0.0231
     19 C          -2.2217    0.8591   -2.0416 C.ar    1  UNL1       -0.0505
     20 C          -2.9986    1.3531   -3.0365 C.ar    1  UNL1       -0.0240
     21 S          -2.8733    3.1129   -2.7637 S.2     1  UNL1       -0.1048
     22 C          -1.8001    3.0709   -1.3377 C.ar    1  UNL1       -0.0201
     23 C           0.6514    1.7680   -0.2020 C.2     1  UNL1        0.0580
     24 O           1.1359    2.4506    0.6693 O.co2   1  UNL1       -0.5487
     25 C          -0.3409    3.9958    6.8983 C.2     1  UNL1        0.0635
     26 O          -0.6957    4.7777    6.0482 O.co2   1  UNL1       -0.5478
     27 C          -2.9889    3.2906    6.1923 C.3     1  UNL1       -0.0486
     28 H          -2.2621    3.0914    8.8975 H       1  UNL1        0.0244
     29 H          -3.5777    1.9633    8.4911 H       1  UNL1        0.0244
     30 H          -1.9526    1.3389    8.8619 H       1  UNL1        0.0244
     31 H           0.1047    0.7976    2.4032 H       1  UNL1        0.1496
     32 H          -2.0844   -0.2064   -1.9311 H       1  UNL1        0.0626
     33 H          -3.5470    0.8204   -3.7993 H       1  UNL1        0.0693
     34 H          -1.4033    3.8930   -0.7606 H       1  UNL1        0.0696
     35 H          -2.7661    3.2636    5.1256 H       1  UNL1        0.0244
     36 H          -4.0441    3.0668    6.3488 H       1  UNL1        0.0244
     37 H          -2.7657    4.2826    6.5851 H       1  UNL1        0.0244
     38 O           1.3582    1.4920   -1.3093 O.co2   1  UNL1       -0.5487
     39 OXT         0.2939    4.4390    7.9949 O.co2   1  UNL1       -0.5478
@<TRIPOS>UNITY_ATOM_ATTR
38 1
charge -1
39 1
charge -1
@<TRIPOS>BOND
     1     1     2    1
     2     1    28    1
     3     1    29    1
     4     1    30    1
     5     2     8    1
     6     2     3    1
     7     2    27    1
     8     3     4    1
     9     3     5    1
    10     3    25    1
    11     5    11   am
    12     5     6    1
    13     6     7    1
    14     6     8    1
    15     6     9    1
    16     9    10    1
    17     9    11    1
    18     9    13    1
    19    11    12    2
    20    13    14   am
    21    13    31    1
    22    14    15    2
    23    14    16    1
    24    16    17    1
    25    16    18    1
    26    16    23    1
    27    18    22   ar
    28    18    19   ar
    29    19    20   ar
    30    19    32    1
    31    20    21   ar
    32    20    33    1
    33    21    22   ar
    34    22    34    1
    35    23    24   ar
    36    23    38   ar
    37    25    26   ar
    38    25    39   ar
    39    27    35    1
    40    27    36    1
    41    27    37    1
