@<TRIPOS>MOLECULE
ZINC04475353
 41 43 0 0 0
SMALL
GASTEIGER

@<TRIPOS>ATOM
      1 C           0.0737    1.2171    0.1651 C.3     1  UNL1       -0.0388
      2 C          -1.0428    1.5653    1.1156 C.2     1  UNL1       -0.0386
      3 C          -1.6495    2.7631    1.2064 C.2     1  UNL1       -0.0306
      4 C          -2.6877    2.7186    2.2401 C.ar    1  UNL1       -0.0108
      5 C          -3.5890    3.6741    2.7177 C.ar    1  UNL1       -0.0184
      6 C          -4.4695    3.3435    3.7283 C.ar    1  UNL1        0.1240
      7 C          -4.4685    2.0680    4.2771 C.ar    1  UNL1       -0.0258
      8 C          -3.5863    1.1107    3.8185 C.ar    1  UNL1       -0.0507
      9 C          -2.6919    1.4245    2.8015 C.ar    1  UNL1       -0.0100
     10 C          -1.6432    0.6553    2.0991 C.2     1  UNL1       -0.0136
     11 C          -1.3003   -0.6470    2.3211 C.2     1  UNL1       -0.0466
     12 C          -1.8273   -1.3550    3.4937 C.ar    1  UNL1       -0.0244
     13 C          -1.8347   -0.7320    4.7480 C.ar    1  UNL1       -0.0535
     14 C          -2.3369   -1.4021    5.8428 C.ar    1  UNL1       -0.0454
     15 C          -2.8224   -2.6915    5.7073 C.ar    1  UNL1        0.0386
     16 C          -2.8136   -3.3170    4.4723 C.ar    1  UNL1       -0.0454
     17 C          -2.3204   -2.6595    3.3658 C.ar    1  UNL1       -0.0535
     18 S          -3.4546   -3.5417    7.1152 S.O     1  UNL1        0.0507
     19 O          -4.3500   -4.4985    6.5655 O.2     1  UNL1       -0.2524
     20 C          -2.0067   -4.3925    7.8009 C.3     1  UNL1        0.0163
     21 F          -5.3396    4.2693    4.1878 F       1  UNL1       -0.2055
     22 C          -1.3141    3.9694    0.3677 C.3     1  UNL1        0.0129
     23 C          -2.2399    4.0286   -0.8199 C.2     1  UNL1        0.0461
     24 O          -3.0854    3.1786   -0.9698 O.co2   1  UNL1       -0.5495
     25 H           0.3709    0.1796    0.3182 H       1  UNL1        0.0278
     26 H           0.9261    1.8705    0.3511 H       1  UNL1        0.0278
     27 H          -0.2684    1.3494   -0.8613 H       1  UNL1        0.0278
     28 H          -3.5969    4.6687    2.2968 H       1  UNL1        0.0652
     29 H          -5.1628    1.8232    5.0672 H       1  UNL1        0.0646
     30 H          -3.5906    0.1202    4.2489 H       1  UNL1        0.0625
     31 H          -0.6410   -1.1564    1.6339 H       1  UNL1        0.0630
     32 H          -1.4519    0.2721    4.8562 H       1  UNL1        0.0624
     33 H          -2.3474   -0.9216    6.8099 H       1  UNL1        0.0629
     34 H          -3.1939   -4.3232    4.3756 H       1  UNL1        0.0629
     35 H          -2.3140   -3.1490    2.4032 H       1  UNL1        0.0624
     36 H          -1.2480   -3.6581    8.0712 H       1  UNL1        0.0368
     37 H          -2.3013   -4.9538    8.6877 H       1  UNL1        0.0368
     38 H          -1.6008   -5.0769    7.0559 H       1  UNL1        0.0368
     39 H          -1.4327    4.8725    0.9663 H       1  UNL1        0.0373
     40 H          -0.2832    3.8958    0.0214 H       1  UNL1        0.0373
     41 O          -2.1253    5.0257   -1.7112 O.co2   1  UNL1       -0.5495
@<TRIPOS>UNITY_ATOM_ATTR
41 1
charge -1
@<TRIPOS>BOND
     1     1     2    1
     2     1    25    1
     3     1    26    1
     4     1    27    1
     5     2    10    1
     6     2     3    2
     7     3     4    1
     8     3    22    1
     9     4     9   ar
    10     4     5   ar
    11     5     6   ar
    12     5    28    1
    13     6     7   ar
    14     6    21    1
    15     7     8   ar
    16     7    29    1
    17     8     9   ar
    18     8    30    1
    19     9    10    1
    20    10    11    2
    21    11    12    1
    22    11    31    1
    23    12    17   ar
    24    12    13   ar
    25    13    14   ar
    26    13    32    1
    27    14    15   ar
    28    14    33    1
    29    15    16   ar
    30    15    18    1
    31    16    17   ar
    32    16    34    1
    33    17    35    1
    34    18    19    2
    35    18    20    1
    36    20    36    1
    37    20    37    1
    38    20    38    1
    39    22    23    1
    40    22    39    1
    41    22    40    1
    42    23    24   ar
    43    23    41   ar
