@<TRIPOS>MOLECULE
ZINC11592784
 92 97 0 0 0
SMALL
GASTEIGER

@<TRIPOS>ATOM
      1 C           0.1305    3.6449    2.8376 C.3     1  UNL1        0.0332
      2 C           0.1414    2.1408    2.7442 C.2     1  UNL1        0.3044
      3 O           1.1922    1.5453    2.7099 O.2     1  UNL1       -0.2512
      4 O          -1.0161    1.4627    2.6992 O.3     1  UNL1       -0.4553
      5 C          -0.9325    0.0123    2.7257 C.3     1  UNL1        0.1508
      6 H           0.0781   -0.2846    3.0202 H       1  UNL1        0.0797
      7 C          -1.2613   -0.5635    1.3412 C.3     1  UNL1        0.0199
      8 H          -0.4136   -1.1415    0.9663 H       1  UNL1        0.0889
      9 C          -2.4906   -1.4820    1.5050 C.3     1  UNL1       -0.0024
     10 C          -2.5774   -1.7678    3.0049 C.3     1  UNL1       -0.0238
     11 H          -1.8933   -2.6304    3.1951 H       1  UNL1        0.0312
     12 C          -1.9611   -0.5703    3.7287 C.3     1  UNL1        0.0136
     13 C          -2.9927    0.5220    3.9996 C.3     1  UNL1       -0.0435
     14 C          -4.2250   -0.0109    4.7054 C.3     1  UNL1       -0.0488
     15 C          -4.8967   -1.1544    3.9599 C.3     1  UNL1       -0.0321
     16 H          -5.5138   -1.6735    4.7598 H       1  UNL1        0.0309
     17 C          -3.9290   -2.2029    3.4943 C.3     1  UNL1       -0.0341
     18 H          -3.6812   -2.7845    4.4367 H       1  UNL1        0.0306
     19 C          -4.5343   -3.2674    2.5853 C.3     1  UNL1       -0.0494
     20 C          -5.4658   -2.6671    1.5374 C.3     1  UNL1       -0.0494
     21 C          -6.5580   -1.8707    2.2463 C.3     1  UNL1       -0.0326
     22 H          -7.0245   -2.5195    3.0005 H       1  UNL1        0.0307
     23 C          -5.9381   -0.6700    2.9645 C.3     1  UNL1       -0.0209
     24 C          -7.0631    0.0425    3.7357 C.3     1  UNL1       -0.0013
     25 C          -8.1598    0.5045    2.7809 C.3     1  UNL1        0.0063
     26 H          -7.7746    1.2493    2.0849 H       1  UNL1        0.0877
     27 C          -8.7370   -0.6754    2.0018 C.3     1  UNL1        0.0980
     28 H          -9.4646   -0.3026    1.2747 H       1  UNL1        0.0650
     29 C          -7.6280   -1.4213    1.2588 C.3     1  UNL1       -0.0182
     30 O          -9.3952   -1.5696    2.9017 O.3     1  UNL1       -0.3862
     31 C         -10.3106    1.6144    2.6836 C.3     1  UNL1       -0.0075
     32 C         -11.4358    2.2017    3.5397 C.3     1  UNL1        0.0878
     33 O         -10.9049    3.2381    4.3700 O.3     1  UNL1       -0.3693
     34 C          -9.8568    2.7997    5.2387 C.3     1  UNL1        0.0878
     35 C          -8.7156    2.2184    4.3998 C.3     1  UNL1       -0.0075
     36 C          -5.3570    0.3135    1.9540 C.3     1  UNL1       -0.0589
     37 C          -1.2638   -1.0029    5.0310 C.3     1  UNL1       -0.0557
     38 N          -1.5687    0.5232    0.3994 N.4     1  UNL1        0.2509
     39 C          -0.4207    1.4513    0.3188 C.3     1  UNL1       -0.0292
     40 C          -0.3777    1.9037   -1.1621 C.3     1  UNL1       -0.0076
     41 C          -0.7791    0.5994   -1.9000 C.3     1  UNL1       -0.0076
     42 C          -1.8123   -0.0359   -0.9459 C.3     1  UNL1       -0.0292
     43 C          -2.7605    1.2497    0.8575 C.3     1  UNL1       -0.0111
     44 C          -3.1385    2.2901   -0.1652 C.2     1  UNL1       -0.0465
     45 C          -4.3254    2.2634   -0.7188 C.2     1  UNL1       -0.0977
     46 H           0.2158    3.9447    3.8821 H       1  UNL1        0.0342
     47 H           0.9706    4.0500    2.2736 H       1  UNL1        0.0342
     48 H          -0.8028    4.0278    2.4247 H       1  UNL1        0.0342
     49 H          -3.3824   -1.0072    1.1136 H       1  UNL1        0.0324
     50 H          -2.3224   -2.4193    0.9533 H       1  UNL1        0.0324
     51 H          -2.5235    1.2689    4.6642 H       1  UNL1        0.0272
     52 H          -3.2480    1.0371    3.0827 H       1  UNL1        0.0272
     53 H          -3.9469   -0.3554    5.7121 H       1  UNL1        0.0268
     54 H          -4.9422    0.8088    4.8452 H       1  UNL1        0.0268
     55 H          -5.0971   -3.9830    3.1957 H       1  UNL1        0.0268
     56 H          -3.7297   -3.8134    2.0817 H       1  UNL1        0.0268
     57 H          -5.9337   -3.4814    0.9700 H       1  UNL1        0.0268
     58 H          -4.9126   -2.0436    0.8449 H       1  UNL1        0.0268
     59 H          -7.4774   -0.6455    4.4721 H       1  UNL1        0.0326
     60 H          -6.6450    0.9095    4.2486 H       1  UNL1        0.0326
     61 H          -8.0628   -2.3065    0.7787 H       1  UNL1        0.0295
     62 H          -7.2078   -0.7891    0.4821 H       1  UNL1        0.0295
     63 H          -9.7856   -2.3430    2.4722 H       1  UNL1        0.2100
     64 H          -9.9179    2.3849    2.0202 H       1  UNL1        0.0837
     65 H         -10.6987    0.7861    2.0908 H       1  UNL1        0.0837
     66 H         -11.8644    1.4183    4.1647 H       1  UNL1        0.0613
     67 H         -12.2086    2.6147    2.8914 H       1  UNL1        0.0613
     68 H         -10.2395    2.0337    5.9131 H       1  UNL1        0.0613
     69 H          -9.4875    3.6447    5.8198 H       1  UNL1        0.0613
     70 H          -7.9395    1.8310    5.0598 H       1  UNL1        0.0837
     71 H          -8.2967    2.9982    3.7638 H       1  UNL1        0.0837
     72 H          -4.8068   -0.2342    1.1889 H       1  UNL1        0.0235
     73 H          -6.1660    0.8756    1.4874 H       1  UNL1        0.0235
     74 H          -4.6829    1.0021    2.4635 H       1  UNL1        0.0235
     75 H          -0.4709   -1.7141    4.7996 H       1  UNL1        0.0236
     76 H          -0.8359   -0.1287    5.5217 H       1  UNL1        0.0236
     77 H          -1.9908   -1.4722    5.6938 H       1  UNL1        0.0236
     78 H           0.5026    0.9369    0.5854 H       1  UNL1        0.0815
     79 H          -0.5790    2.3086    0.9731 H       1  UNL1        0.0815
     80 H          -1.1016    2.6968   -1.3492 H       1  UNL1        0.0319
     81 H           0.6265    2.2198   -1.4448 H       1  UNL1        0.0319
     82 H          -1.2336    0.8265   -2.8644 H       1  UNL1        0.0319
     83 H           0.0841   -0.0545   -2.0240 H       1  UNL1        0.0319
     84 H          -2.8217    0.2134   -1.2733 H       1  UNL1        0.0815
     85 H          -1.6849   -1.1182   -0.9289 H       1  UNL1        0.0815
     86 H          -3.5859    0.5495    0.9857 H       1  UNL1        0.0862
     87 H          -2.5459    1.7365    1.8088 H       1  UNL1        0.0862
     88 H          -2.4308    3.0577   -0.4416 H       1  UNL1        0.0619
     89 H          -4.5688    2.9590   -1.5083 H       1  UNL1        0.0534
     90 H          -5.0606    1.5457   -0.3858 H       1  UNL1        0.0534
     91 N          -9.2476    1.1107    3.5789 N.4     1  UNL1        0.2425
     92 H          -9.6445    0.3956    4.1996 H       1  UNL1        0.2039
@<TRIPOS>UNITY_ATOM_ATTR
38 1
charge 1
91 1
charge 1
@<TRIPOS>BOND
     1     1     2    1
     2     1    46    1
     3     1    47    1
     4     1    48    1
     5     2     3    2
     6     2     4    1
     7     4     5    1
     8     5     6    1
     9     5    12    1
    10     5     7    1
    11     7     8    1
    12     7     9    1
    13     7    38    1
    14     9    10    1
    15     9    49    1
    16     9    50    1
    17    10    11    1
    18    10    17    1
    19    10    12    1
    20    12    13    1
    21    12    37    1
    22    13    14    1
    23    13    51    1
    24    13    52    1
    25    14    15    1
    26    14    53    1
    27    14    54    1
    28    15    16    1
    29    15    23    1
    30    15    17    1
    31    17    18    1
    32    17    19    1
    33    19    20    1
    34    19    55    1
    35    19    56    1
    36    20    21    1
    37    20    57    1
    38    20    58    1
    39    21    22    1
    40    21    29    1
    41    21    23    1
    42    23    24    1
    43    23    36    1
    44    24    25    1
    45    24    59    1
    46    24    60    1
    47    25    26    1
    48    25    27    1
    49    25    91    1
    50    27    28    1
    51    27    29    1
    52    27    30    1
    53    29    61    1
    54    29    62    1
    55    30    63    1
    56    31    32    1
    57    31    64    1
    58    31    65    1
    59    31    91    1
    60    32    33    1
    61    32    66    1
    62    32    67    1
    63    33    34    1
    64    34    35    1
    65    34    68    1
    66    34    69    1
    67    35    70    1
    68    35    71    1
    69    35    91    1
    70    36    72    1
    71    36    73    1
    72    36    74    1
    73    37    75    1
    74    37    76    1
    75    37    77    1
    76    38    42    1
    77    38    39    1
    78    38    43    1
    79    39    40    1
    80    39    78    1
    81    39    79    1
    82    40    41    1
    83    40    80    1
    84    40    81    1
    85    41    42    1
    86    41    82    1
    87    41    83    1
    88    42    84    1
    89    42    85    1
    90    43    44    1
    91    43    86    1
    92    43    87    1
    93    44    45    2
    94    44    88    1
    95    45    89    1
    96    45    90    1
    97    91    92    1
