@<TRIPOS>MOLECULE
ZINC15848265
 52 55 0 0 0
SMALL
GASTEIGER

@<TRIPOS>ATOM
      1 C           0.5092   -5.9691   -5.7573 C.3     1  UNL1       -0.0627
      2 C           0.9781   -4.9405   -4.7262 C.3     1  UNL1       -0.0263
      3 C           0.7787   -5.5018   -3.3206 C.3     1  UNL1        0.0715
      4 C          -0.7242   -5.8198   -3.1058 C.3     1  UNL1       -0.0232
      5 C          -1.2493   -4.7935   -2.0694 C.3     1  UNL1       -0.0467
      6 C          -0.1984   -3.6687   -2.1284 C.3     1  UNL1       -0.0298
      7 H          -0.3576   -3.0660   -3.0317 H       1  UNL1        0.0310
      8 C           1.1143   -4.4741   -2.2330 C.3     1  UNL1       -0.0002
      9 C           2.2837   -3.5564   -2.4900 C.3     1  UNL1       -0.0445
     10 C           1.8660   -2.1095   -2.1594 C.3     1  UNL1       -0.0488
     11 C           1.1617   -2.1010   -0.8054 C.3     1  UNL1       -0.0314
     12 H           1.7642   -2.7877   -0.1874 H       1  UNL1        0.0309
     13 C          -0.1936   -2.7670   -0.8982 C.3     1  UNL1       -0.0340
     14 H          -0.3670   -3.3634   -0.0021 H       1  UNL1        0.0307
     15 C          -1.3446   -1.7781   -1.0471 C.3     1  UNL1       -0.0460
     16 C          -1.3241   -0.7338    0.0601 C.3     1  UNL1       -0.0308
     17 C           0.0021   -0.0041    0.0020 C.2     1  UNL1       -0.0629
     18 C          -0.0160    1.3294    0.0094 C.2     1  UNL1       -0.0197
     19 C           1.2306    2.0994    0.0016 C.2     1  UNL1        0.1561
     20 O           1.2224    3.3051   -0.1708 O.2     1  UNL1       -0.2927
     21 C           2.5289    1.3511    0.2158 C.3     1  UNL1        0.0104
     22 C           2.4481    0.0299   -0.5503 C.3     1  UNL1       -0.0392
     23 C           1.2626   -0.7961   -0.0725 C.3     1  UNL1       -0.0160
     24 H           1.5009   -1.0593    0.9668 H       1  UNL1        0.0349
     25 C           1.3668   -5.2562   -0.9312 C.3     1  UNL1       -0.0567
     26 O           1.5615   -6.6830   -3.1389 O.3     1  UNL1       -0.3880
     27 H           0.6516   -5.5684   -6.7609 H       1  UNL1        0.0231
     28 H           1.0892   -6.8853   -5.6463 H       1  UNL1        0.0231
     29 H          -0.5472   -6.1864   -5.5993 H       1  UNL1        0.0231
     30 H           0.3981   -4.0243   -4.8373 H       1  UNL1        0.0290
     31 H           2.0345   -4.7232   -4.8843 H       1  UNL1        0.0290
     32 H          -1.2632   -5.7133   -4.0464 H       1  UNL1        0.0293
     33 H          -0.8352   -6.8332   -2.7203 H       1  UNL1        0.0293
     34 H          -2.2275   -4.4130   -2.3735 H       1  UNL1        0.0269
     35 H          -1.3095   -5.2295   -1.0760 H       1  UNL1        0.0269
     36 H           2.6576   -3.6051   -3.5054 H       1  UNL1        0.0272
     37 H           3.1103   -3.8356   -1.8163 H       1  UNL1        0.0272
     38 H           1.1965   -1.7350   -2.9307 H       1  UNL1        0.0268
     39 H           2.7620   -1.4897   -2.1212 H       1  UNL1        0.0268
     40 H          -2.2857   -2.3269   -1.0043 H       1  UNL1        0.0271
     41 H          -1.2652   -1.2823   -2.0131 H       1  UNL1        0.0271
     42 H          -1.4328   -1.2235    1.0286 H       1  UNL1        0.0310
     43 H          -2.1415   -0.0272   -0.0834 H       1  UNL1        0.0310
     44 H          -0.9654    1.8490    0.0167 H       1  UNL1        0.0652
     45 H           2.6560    1.1768    1.1923 H       1  UNL1        0.0345
     46 H           3.3656    1.9431   -0.1560 H       1  UNL1        0.0345
     47 H           3.3649   -0.5346   -0.3895 H       1  UNL1        0.0275
     48 H           2.3298    0.2462   -1.6112 H       1  UNL1        0.0275
     49 H           1.4616   -4.5573   -0.1001 H       1  UNL1        0.0236
     50 H           0.5314   -5.9311   -0.7449 H       1  UNL1        0.0236
     51 H           2.2862   -5.8338   -1.0269 H       1  UNL1        0.0236
     52 H           1.3938   -7.3711   -3.7973 H       1  UNL1        0.2102
@<TRIPOS>BOND
     1     1     2    1
     2     1    27    1
     3     1    28    1
     4     1    29    1
     5     2     3    1
     6     2    30    1
     7     2    31    1
     8     3     8    1
     9     3     4    1
    10     3    26    1
    11     4     5    1
    12     4    32    1
    13     4    33    1
    14     5     6    1
    15     5    34    1
    16     5    35    1
    17     6     7    1
    18     6    13    1
    19     6     8    1
    20     8     9    1
    21     8    25    1
    22     9    10    1
    23     9    36    1
    24     9    37    1
    25    10    11    1
    26    10    38    1
    27    10    39    1
    28    11    12    1
    29    11    23    1
    30    11    13    1
    31    13    14    1
    32    13    15    1
    33    15    16    1
    34    15    40    1
    35    15    41    1
    36    16    17    1
    37    16    42    1
    38    16    43    1
    39    17    23    1
    40    17    18    2
    41    18    19    1
    42    18    44    1
    43    19    20    2
    44    19    21    1
    45    21    22    1
    46    21    45    1
    47    21    46    1
    48    22    23    1
    49    22    47    1
    50    22    48    1
    51    23    24    1
    52    25    49    1
    53    25    50    1
    54    25    51    1
    55    26    52    1
