@<TRIPOS>MOLECULE
ZINC08101050
 123 130 0 0 0
SMALL
GASTEIGER

@<TRIPOS>ATOM
      1 C          -0.7892   -4.4725    1.6326 C.3     1  UNL1       -0.0360
      2 C          -1.6525   -3.4859    2.4214 C.3     1  UNL1        0.0882
      3 H          -2.4585   -4.0253    2.9190 H       1  UNL1        0.0621
      4 C          -0.7899   -2.7769    3.4688 C.3     1  UNL1        0.1180
      5 H          -0.3308   -3.5170    4.1242 H       1  UNL1        0.0656
      6 C           0.3038   -1.9731    2.7589 C.3     1  UNL1        0.1358
      7 H           0.9564   -2.6516    2.2094 H       1  UNL1        0.0762
      8 C          -0.3516   -0.9904    1.7837 C.3     1  UNL1        0.0381
      9 C          -1.2311   -1.7685    0.8014 C.3     1  UNL1        0.1636
     10 H          -0.6105   -2.4487    0.2181 H       1  UNL1        0.0911
     11 O          -2.2068   -2.5181    1.5281 O.3     1  UNL1       -0.3456
     12 O          -1.8899   -0.8533   -0.0763 O.3     1  UNL1       -0.3429
     13 C          -2.5987   -1.4820   -1.1461 C.3     1  UNL1        0.1134
     14 H          -2.6304   -2.5586   -0.9789 H       1  UNL1        0.0649
     15 C          -1.8889   -1.1907   -2.4709 C.3     1  UNL1        0.0875
     16 H          -2.4059   -1.7047   -3.2812 H       1  UNL1        0.0621
     17 O          -1.8996    0.2171   -2.7160 O.3     1  UNL1       -0.3456
     18 C          -3.2083    0.7793   -2.8319 C.3     1  UNL1        0.1626
     19 H          -3.7427    0.2911   -3.6468 H       1  UNL1        0.0910
     20 C          -3.9711    0.5671   -1.5216 C.3     1  UNL1        0.0270
     21 C          -4.0267   -0.9314   -1.2091 C.3     1  UNL1        0.0884
     22 H          -4.5820   -1.4469   -1.9927 H       1  UNL1        0.0622
     23 O          -4.6736   -1.1355    0.0486 O.3     1  UNL1       -0.3890
     24 O          -3.1036    2.1787   -3.1015 O.3     1  UNL1       -0.3429
     25 C          -2.5586    2.4839   -4.3867 C.3     1  UNL1        0.1134
     26 H          -1.9575    1.6444   -4.7361 H       1  UNL1        0.0649
     27 C          -1.6815    3.7346   -4.2866 C.3     1  UNL1        0.0875
     28 H          -1.2338    3.9434   -5.2583 H       1  UNL1        0.0621
     29 O          -2.4835    4.8462   -3.8827 O.3     1  UNL1       -0.3456
     30 C          -3.5359    5.1682   -4.7943 C.3     1  UNL1        0.1624
     31 H          -3.1125    5.3957   -5.7726 H       1  UNL1        0.0910
     32 C          -4.4876    3.9750   -4.9148 C.3     1  UNL1        0.0270
     33 C          -3.6977    2.7465   -5.3766 C.3     1  UNL1        0.0884
     34 H          -3.2840    2.9305   -6.3681 H       1  UNL1        0.0622
     35 O          -4.5636    1.6106   -5.4213 O.3     1  UNL1       -0.3890
     36 O          -4.2547    6.3044   -4.3102 O.3     1  UNL1       -0.3480
     37 C          -3.5176    7.5290   -4.3722 C.3     1  UNL1        0.0620
     38 H          -2.8211    7.4799   -5.2118 H       1  UNL1        0.0597
     39 C          -2.7315    7.7077   -3.0774 C.3     1  UNL1       -0.0260
     40 C          -2.0047    9.0557   -3.0425 C.3     1  UNL1       -0.0448
     41 C          -3.0107   10.1825   -3.2406 C.3     1  UNL1       -0.0259
     42 C          -3.7015    9.9905   -4.5911 C.3     1  UNL1       -0.0330
     43 H          -2.9159    9.8842   -5.3585 H       1  UNL1        0.0307
     44 C          -4.4924    8.6907   -4.5968 C.3     1  UNL1       -0.0232
     45 C          -4.5324   11.2106   -4.9554 C.3     1  UNL1       -0.0493
     46 C          -3.5756   12.3763   -5.2613 C.3     1  UNL1       -0.0470
     47 C          -2.2135   12.0692   -4.6529 C.3     1  UNL1       -0.0083
     48 H          -1.7867   11.2280   -5.2396 H       1  UNL1        0.0331
     49 C          -2.3619   11.5676   -3.2196 C.3     1  UNL1       -0.0299
     50 H          -3.0645   12.1996   -2.6750 H       1  UNL1        0.0310
     51 C          -1.0226   11.5537   -2.5039 C.3     1  UNL1       -0.0488
     52 C          -0.4066   12.9565   -2.3878 C.3     1  UNL1       -0.0442
     53 C          -0.9926   13.9013   -3.4008 C.3     1  UNL1        0.0036
     54 C          -1.2208   13.1919   -4.7507 C.3     1  UNL1        0.0751
     55 C          -1.6140   14.3644   -5.6643 C.3     1  UNL1       -0.0226
     56 C          -0.6496   15.4954   -5.2182 C.3     1  UNL1       -0.0432
     57 C          -0.1359   15.1112   -3.8075 C.3     1  UNL1       -0.0081
     58 H          -0.3371   15.9336   -3.1123 H       1  UNL1        0.0353
     59 C           1.3416   14.8163   -3.8391 C.2     1  UNL1       -0.0222
     60 C           2.2989   15.4985   -3.2160 C.2     1  UNL1        0.0252
     61 C           3.6000   14.8870   -3.4998 C.2     1  UNL1        0.3323
     62 O           4.6655   15.2828   -3.0696 O.2     1  UNL1       -0.2456
     63 O           3.4410   13.8248   -4.3114 O.3     1  UNL1       -0.4571
     64 C           2.0186   13.6935   -4.5898 C.3     1  UNL1        0.1147
     65 O           0.0236   12.6441   -5.2375 O.3     1  UNL1       -0.3877
     66 C          -2.3012   14.5044   -2.8546 C.3     1  UNL1       -0.0564
     67 C          -4.0406   10.1466   -2.1082 C.3     1  UNL1       -0.0590
     68 C          -0.5761    3.5013   -3.2548 C.3     1  UNL1       -0.0361
     69 C          -0.4427   -1.6843   -2.3942 C.3     1  UNL1       -0.0361
     70 O           1.0809   -1.2377    3.7406 O.3     1  UNL1       -0.4587
     71 C           2.3667   -0.9944    3.4419 C.2     1  UNL1        0.3043
     72 O           2.8276   -1.3829    2.3948 O.2     1  UNL1       -0.2512
     73 C           3.2353   -0.2365    4.4125 C.3     1  UNL1        0.0332
     74 O          -1.6051   -1.8943    4.2425 O.3     1  UNL1       -0.3856
     75 H          -0.3656   -5.2102    2.3142 H       1  UNL1        0.0255
     76 H          -1.4035   -4.9773    0.8870 H       1  UNL1        0.0255
     77 H           0.0165   -3.9330    1.1348 H       1  UNL1        0.0255
     78 H           0.4210   -0.4529    1.2339 H       1  UNL1        0.0351
     79 H          -0.9650   -0.2802    2.3381 H       1  UNL1        0.0351
     80 H          -3.4588    1.0890   -0.7133 H       1  UNL1        0.0340
     81 H          -4.9843    0.9560   -1.6229 H       1  UNL1        0.0340
     82 H          -5.5836   -0.8099    0.0802 H       1  UNL1        0.2099
     83 H          -4.9423    3.7724   -3.9451 H       1  UNL1        0.0340
     84 H          -5.2669    4.2027   -5.6421 H       1  UNL1        0.0340
     85 H          -5.3090    1.7079   -6.0295 H       1  UNL1        0.2099
     86 H          -3.3964    7.6054   -2.2220 H       1  UNL1        0.0290
     87 H          -1.9817    6.9065   -3.0133 H       1  UNL1        0.0290
     88 H          -1.2541    9.0884   -3.8369 H       1  UNL1        0.0271
     89 H          -1.5044    9.1741   -2.0772 H       1  UNL1        0.0271
     90 H          -4.9643    8.5673   -5.5807 H       1  UNL1        0.0293
     91 H          -5.2698    8.6882   -3.8415 H       1  UNL1        0.0293
     92 H          -5.1229   10.9955   -5.8506 H       1  UNL1        0.0268
     93 H          -5.1987   11.4873   -4.1440 H       1  UNL1        0.0268
     94 H          -3.9803   13.2904   -4.8358 H       1  UNL1        0.0269
     95 H          -3.4780   12.4832   -6.3409 H       1  UNL1        0.0269
     96 H          -1.1498   11.1415   -1.4960 H       1  UNL1        0.0268
     97 H          -0.3243   10.9054   -3.0445 H       1  UNL1        0.0268
     98 H          -0.5981   13.3442   -1.3753 H       1  UNL1        0.0272
     99 H           0.6772   12.8575   -2.4948 H       1  UNL1        0.0272
    100 H          -1.4334   14.1037   -6.7101 H       1  UNL1        0.0293
    101 H          -2.6511   14.6538   -5.5245 H       1  UNL1        0.0293
    102 H           0.1870   15.5702   -5.9119 H       1  UNL1        0.0272
    103 H          -1.1823   16.4455   -5.1720 H       1  UNL1        0.0272
    104 H           2.1412   16.3678   -2.5948 H       1  UNL1        0.0689
    105 H           1.6538   12.7301   -4.2335 H       1  UNL1        0.0746
    106 H           1.8338   13.7921   -5.6595 H       1  UNL1        0.0746
    107 H          -0.0537   12.1844   -6.0847 H       1  UNL1        0.2102
    108 H          -2.0769   15.1513   -2.0066 H       1  UNL1        0.0236
    109 H          -2.7873   15.0868   -3.6373 H       1  UNL1        0.0236
    110 H          -2.9650   13.7016   -2.5336 H       1  UNL1        0.0236
    111 H          -4.5524    9.1842   -2.1129 H       1  UNL1        0.0235
    112 H          -3.5348   10.2844   -1.1525 H       1  UNL1        0.0235
    113 H          -4.7678   10.9455   -2.2530 H       1  UNL1        0.0235
    114 H           0.0805    2.7027   -3.6000 H       1  UNL1        0.0255
    115 H           0.0013    4.4170   -3.1276 H       1  UNL1        0.0255
    116 H          -1.0226    3.2181   -2.3017 H       1  UNL1        0.0255
    117 H           0.0992   -1.1065   -1.6455 H       1  UNL1        0.0255
    118 H          -0.4328   -2.7384   -2.1169 H       1  UNL1        0.0255
    119 H           0.0357   -1.5597   -3.3657 H       1  UNL1        0.0255
    120 H           3.7162   -0.9381    5.0941 H       1  UNL1        0.0342
    121 H           3.9973    0.3163    3.8630 H       1  UNL1        0.0342
    122 H           2.6209    0.4605    4.9824 H       1  UNL1        0.0342
    123 H          -2.3201   -2.3366    4.7202 H       1  UNL1        0.2100
@<TRIPOS>BOND
     1     1     2    1
     2     1    75    1
     3     1    76    1
     4     1    77    1
     5     2     3    1
     6     2    11    1
     7     2     4    1
     8     4     5    1
     9     4     6    1
    10     4    74    1
    11     6     7    1
    12     6     8    1
    13     6    70    1
    14     8     9    1
    15     8    78    1
    16     8    79    1
    17     9    10    1
    18     9    11    1
    19     9    12    1
    20    12    13    1
    21    13    14    1
    22    13    21    1
    23    13    15    1
    24    15    16    1
    25    15    17    1
    26    15    69    1
    27    17    18    1
    28    18    19    1
    29    18    20    1
    30    18    24    1
    31    20    21    1
    32    20    80    1
    33    20    81    1
    34    21    22    1
    35    21    23    1
    36    23    82    1
    37    24    25    1
    38    25    26    1
    39    25    33    1
    40    25    27    1
    41    27    28    1
    42    27    29    1
    43    27    68    1
    44    29    30    1
    45    30    31    1
    46    30    32    1
    47    30    36    1
    48    32    33    1
    49    32    83    1
    50    32    84    1
    51    33    34    1
    52    33    35    1
    53    35    85    1
    54    36    37    1
    55    37    38    1
    56    37    44    1
    57    37    39    1
    58    39    40    1
    59    39    86    1
    60    39    87    1
    61    40    41    1
    62    40    88    1
    63    40    89    1
    64    41    49    1
    65    41    42    1
    66    41    67    1
    67    42    43    1
    68    42    44    1
    69    42    45    1
    70    44    90    1
    71    44    91    1
    72    45    46    1
    73    45    92    1
    74    45    93    1
    75    46    47    1
    76    46    94    1
    77    46    95    1
    78    47    48    1
    79    47    54    1
    80    47    49    1
    81    49    50    1
    82    49    51    1
    83    51    52    1
    84    51    96    1
    85    51    97    1
    86    52    53    1
    87    52    98    1
    88    52    99    1
    89    53    57    1
    90    53    54    1
    91    53    66    1
    92    54    55    1
    93    54    65    1
    94    55    56    1
    95    55   100    1
    96    55   101    1
    97    56    57    1
    98    56   102    1
    99    56   103    1
   100    57    58    1
   101    57    59    1
   102    59    64    1
   103    59    60    2
   104    60    61    1
   105    60   104    1
   106    61    62    2
   107    61    63    1
   108    63    64    1
   109    64   105    1
   110    64   106    1
   111    65   107    1
   112    66   108    1
   113    66   109    1
   114    66   110    1
   115    67   111    1
   116    67   112    1
   117    67   113    1
   118    68   114    1
   119    68   115    1
   120    68   116    1
   121    69   117    1
   122    69   118    1
   123    69   119    1
   124    70    71    1
   125    71    72    2
   126    71    73    1
   127    73   120    1
   128    73   121    1
   129    73   122    1
   130    74   123    1
