@<TRIPOS>MOLECULE
ZINC03831186
 69 74 0 0 0
SMALL
GASTEIGER

@<TRIPOS>ATOM
      1 C          -1.6420    4.6526   10.6322 C.3     1  UNL1       -0.0561
      2 C          -1.0487    3.6956    9.5964 C.3     1  UNL1       -0.0139
      3 C          -0.1634    2.6417   10.2739 C.3     1  UNL1       -0.0429
      4 C           0.3700    1.6676    9.2211 C.3     1  UNL1       -0.0329
      5 C          -0.1574    2.0680    7.8373 C.3     1  UNL1        0.0858
      6 C           0.3542    3.4790    7.5159 C.3     1  UNL1       -0.0329
      7 C          -0.1938    4.4600    8.5762 C.3     1  UNL1       -0.0429
      8 C          -1.6762    2.1170    7.9134 C.2     1  UNL1       -0.0708
      9 C          -2.1401    2.9642    8.8291 C.2     1  UNL1       -0.0810
     10 C           0.2938    1.0844    6.7885 C.2     1  UNL1        0.3174
     11 O           0.9781    0.1390    7.1014 O.2     1  UNL1       -0.2499
     12 O          -0.0646    1.2584    5.5067 O.3     1  UNL1       -0.4602
     13 C           0.4046    0.2748    4.5536 C.3     1  UNL1        0.1087
     14 H           0.4882   -0.7057    5.0075 H       1  UNL1        0.0739
     15 C           1.7591    0.7193    3.9453 C.3     1  UNL1       -0.0149
     16 C           1.4451    1.2874    2.5347 C.3     1  UNL1       -0.0460
     17 C          -0.0817    1.4606    2.5507 C.3     1  UNL1       -0.0290
     18 H          -0.3108    2.3609    3.1563 H       1  UNL1        0.0310
     19 C          -0.5394    0.2156    3.3348 C.3     1  UNL1        0.0081
     20 C          -2.0104    0.2748    3.6705 C.3     1  UNL1       -0.0437
     21 C          -2.7533    1.1616    2.6527 C.3     1  UNL1       -0.0488
     22 C          -2.1457    0.9379    1.2768 C.3     1  UNL1       -0.0314
     23 H          -2.0497   -0.1319    1.0905 H       1  UNL1        0.0309
     24 C          -0.7592    1.6009    1.2266 C.3     1  UNL1       -0.0339
     25 H          -0.9314    2.6822    1.0576 H       1  UNL1        0.0307
     26 C          -0.0127    1.0836    0.0080 C.3     1  UNL1       -0.0460
     27 C          -0.7590    1.5893   -1.2379 C.3     1  UNL1       -0.0308
     28 C          -2.2283    1.2213   -1.1414 C.2     1  UNL1       -0.0629
     29 C          -2.7880    0.6346   -2.1981 C.2     1  UNL1       -0.0197
     30 C          -4.2023    0.2503   -2.1635 C.2     1  UNL1        0.1561
     31 O          -4.6470   -0.6196   -2.8811 O.2     1  UNL1       -0.2927
     32 C          -5.0761    0.9997   -1.1763 C.3     1  UNL1        0.0104
     33 C          -4.3783    0.9484    0.1811 C.3     1  UNL1       -0.0392
     34 C          -2.9775    1.5258    0.1312 C.3     1  UNL1       -0.0160
     35 H          -3.0311    2.6050    0.2560 H       1  UNL1        0.0349
     36 C          -0.2166   -1.0784    2.5828 C.3     1  UNL1       -0.0559
     37 H          -0.8358    5.1590   11.1629 H       1  UNL1        0.0238
     38 H          -2.2661    5.3912   10.1291 H       1  UNL1        0.0238
     39 H          -2.2470    4.0893   11.3428 H       1  UNL1        0.0238
     40 H          -0.7505    2.0939   11.0110 H       1  UNL1        0.0274
     41 H           0.6730    3.1346   10.7694 H       1  UNL1        0.0274
     42 H           0.0361    0.6576    9.4586 H       1  UNL1        0.0279
     43 H           1.4596    1.6981    9.2172 H       1  UNL1        0.0279
     44 H           1.4440    3.4836    7.5363 H       1  UNL1        0.0279
     45 H           0.0086    3.7737    6.5250 H       1  UNL1        0.0279
     46 H          -0.8030    5.2220    8.0902 H       1  UNL1        0.0274
     47 H           0.6431    4.9357    9.0875 H       1  UNL1        0.0274
     48 H          -2.3181    1.5118    7.2905 H       1  UNL1        0.0580
     49 H          -3.1936    3.1187    9.0101 H       1  UNL1        0.0575
     50 H           2.4291   -0.1354    3.8633 H       1  UNL1        0.0301
     51 H           2.2108    1.4916    4.5670 H       1  UNL1        0.0301
     52 H           1.7618    0.5982    1.7570 H       1  UNL1        0.0269
     53 H           1.9357    2.2548    2.4019 H       1  UNL1        0.0269
     54 H          -2.4319   -0.7359    3.6439 H       1  UNL1        0.0272
     55 H          -2.1537    0.6831    4.6745 H       1  UNL1        0.0272
     56 H          -2.6523    2.2105    2.9356 H       1  UNL1        0.0268
     57 H          -3.8115    0.8922    2.6375 H       1  UNL1        0.0268
     58 H           0.0021   -0.0041    0.0020 H       1  UNL1        0.0271
     59 H           1.0061    1.4712    0.0004 H       1  UNL1        0.0271
     60 H          -0.6613    2.6724   -1.2985 H       1  UNL1        0.0310
     61 H          -0.3275    1.1310   -2.1265 H       1  UNL1        0.0310
     62 H          -2.1996    0.4420   -3.0821 H       1  UNL1        0.0652
     63 H          -5.9748    0.5637   -1.1288 H       1  UNL1        0.0345
     64 H          -5.1912    2.0354   -1.4949 H       1  UNL1        0.0345
     65 H          -4.3230   -0.0900    0.5111 H       1  UNL1        0.0275
     66 H          -4.9691    1.5142    0.9033 H       1  UNL1        0.0275
     67 H           0.8598   -1.1487    2.4260 H       1  UNL1        0.0236
     68 H          -0.5549   -1.9331    3.1686 H       1  UNL1        0.0236
     69 H          -0.7247   -1.0747    1.6186 H       1  UNL1        0.0236
@<TRIPOS>BOND
     1     1     2    1
     2     1    37    1
     3     1    38    1
     4     1    39    1
     5     2     7    1
     6     2     9    1
     7     2     3    1
     8     3     4    1
     9     3    40    1
    10     3    41    1
    11     4     5    1
    12     4    42    1
    13     4    43    1
    14     5     6    1
    15     5     8    1
    16     5    10    1
    17     6     7    1
    18     6    44    1
    19     6    45    1
    20     7    46    1
    21     7    47    1
    22     8     9    2
    23     8    48    1
    24     9    49    1
    25    10    11    2
    26    10    12    1
    27    12    13    1
    28    13    14    1
    29    13    19    1
    30    13    15    1
    31    15    16    1
    32    15    50    1
    33    15    51    1
    34    16    17    1
    35    16    52    1
    36    16    53    1
    37    17    18    1
    38    17    24    1
    39    17    19    1
    40    19    20    1
    41    19    36    1
    42    20    21    1
    43    20    54    1
    44    20    55    1
    45    21    22    1
    46    21    56    1
    47    21    57    1
    48    22    23    1
    49    22    34    1
    50    22    24    1
    51    24    25    1
    52    24    26    1
    53    26    27    1
    54    26    58    1
    55    26    59    1
    56    27    28    1
    57    27    60    1
    58    27    61    1
    59    28    34    1
    60    28    29    2
    61    29    30    1
    62    29    62    1
    63    30    31    2
    64    30    32    1
    65    32    33    1
    66    32    63    1
    67    32    64    1
    68    33    34    1
    69    33    65    1
    70    33    66    1
    71    34    35    1
    72    36    67    1
    73    36    68    1
    74    36    69    1
