@<TRIPOS>MOLECULE
ZINC11592622
 58 61 0 0 0
SMALL
GASTEIGER

@<TRIPOS>ATOM
      1 C           3.6890   -2.7677    2.3210 C.3     1  UNL1       -0.0312
      2 C           3.9489   -3.2687    0.8989 C.3     1  UNL1        0.0983
      3 C           3.5469   -4.7155    0.8014 C.ar    1  UNL1       -0.0014
      4 C           4.4899   -5.7087    0.9638 C.ar    1  UNL1       -0.0549
      5 C           4.1186   -7.0412    0.8940 C.ar    1  UNL1       -0.0579
      6 C           2.8027   -7.3913    0.6626 C.ar    1  UNL1       -0.0194
      7 C           1.8426   -6.4051    0.4885 C.ar    1  UNL1        0.1280
      8 C           2.2178   -5.0576    0.5496 C.ar    1  UNL1        0.0693
      9 C           1.2225   -3.9921    0.3176 C.2     1  UNL1        0.1968
     10 O           0.0305   -4.2403    0.3441 O.2     1  UNL1       -0.2867
     11 C           1.6832   -2.6659    0.0622 C.2     1  UNL1        0.0490
     12 C           0.7607   -1.6929   -0.0494 C.2     1  UNL1        0.1410
     13 C           1.2064   -0.2735   -0.3296 C.3     1  UNL1        0.1960
     14 C           2.4757   -0.0393    0.5101 C.3     1  UNL1        0.0789
     15 H           2.2612   -0.2266    1.5623 H       1  UNL1        0.0423
     16 C           3.5733   -0.9729    0.0118 C.3     1  UNL1        0.0771
     17 H           3.8935   -0.6376   -0.9747 H       1  UNL1        0.0606
     18 C           3.1482   -2.4201   -0.0886 C.3     1  UNL1        0.0503
     19 H           3.4178   -2.7616   -1.0880 H       1  UNL1        0.0408
     20 O           4.6857   -0.8857    0.9045 O.3     1  UNL1       -0.3905
     21 C           2.9382    1.4073    0.3264 C.3     1  UNL1        0.0465
     22 H           3.7686    1.6043    1.0045 H       1  UNL1        0.0939
     23 C           1.8342    2.3799    0.6115 C.2     1  UNL1        0.1579
     24 C           0.5086    2.0289    0.5420 C.2     1  UNL1        0.1248
     25 C           0.1317    0.6573    0.1969 C.2     1  UNL1        0.2109
     26 O          -1.0127    0.2748    0.3286 O.2     1  UNL1       -0.2882
     27 C          -0.5334    3.0334    0.8085 C.2     1  UNL1        0.2485
     28 O          -1.1111    3.0411    1.8789 O.2     1  UNL1       -0.2702
     29 N          -0.8475    3.9447   -0.1334 N.am    1  UNL1       -0.3252
     30 O           2.1527    3.6389    0.9467 O.2     1  UNL1       -0.5050
     31 C           3.0224    2.9211   -1.5614 C.3     1  UNL1       -0.0426
     32 C           4.8438    1.3753   -1.1670 C.3     1  UNL1       -0.0426
     33 O           1.4529   -0.0496   -1.7193 O.3     1  UNL1       -0.3730
     34 O          -0.5493   -1.9795    0.0875 O.2     1  UNL1       -0.5073
     35 O           0.5486   -6.7441    0.2619 O.3     1  UNL1       -0.5060
     36 O           5.3418   -3.1460    0.6043 O.3     1  UNL1       -0.3835
     37 H           2.6628   -2.9996    2.6061 H       1  UNL1        0.0261
     38 H           4.3770   -3.2574    3.0102 H       1  UNL1        0.0261
     39 H           3.8420   -1.6892    2.3599 H       1  UNL1        0.0261
     40 H           5.5215   -5.4465    1.1462 H       1  UNL1        0.0621
     41 H           4.8638   -7.8124    1.0213 H       1  UNL1        0.0619
     42 H           2.5212   -8.4329    0.6167 H       1  UNL1        0.0654
     43 H           5.0149    0.0140    1.0361 H       1  UNL1        0.2098
     44 H          -0.4417    3.8928   -1.0129 H       1  UNL1        0.1453
     45 H          -1.4794    4.6525    0.0682 H       1  UNL1        0.1453
     46 H           1.3162    4.1634    1.1051 H       1  UNL1        0.2919
     47 H           3.4799    3.6882   -0.9366 H       1  UNL1        0.0778
     48 H           3.3727    3.0318   -2.5877 H       1  UNL1        0.0778
     49 H           1.9381    3.0291   -1.5340 H       1  UNL1        0.0778
     50 H           5.0869    0.3683   -0.8280 H       1  UNL1        0.0778
     51 H           5.1513    1.4929   -2.2061 H       1  UNL1        0.0778
     52 H           5.3683    2.1035   -0.5483 H       1  UNL1        0.0778
     53 H           0.6794   -0.1868   -2.2831 H       1  UNL1        0.2113
     54 H          -1.0869   -1.1438   -0.0251 H       1  UNL1        0.2918
     55 H           0.0200   -6.8382    1.0662 H       1  UNL1        0.2922
     56 H           5.9147   -3.6582    1.1913 H       1  UNL1        0.2106
     57 N           3.3820    1.5730   -1.0737 N.4     1  UNL1        0.2389
     58 H           2.9126    0.8709   -1.6576 H       1  UNL1        0.2035
@<TRIPOS>UNITY_ATOM_ATTR
57 1
charge 1
@<TRIPOS>BOND
     1     1     2    1
     2     1    37    1
     3     1    38    1
     4     1    39    1
     5     2    18    1
     6     2     3    1
     7     2    36    1
     8     3     8   ar
     9     3     4   ar
    10     4     5   ar
    11     4    40    1
    12     5     6   ar
    13     5    41    1
    14     6     7   ar
    15     6    42    1
    16     7     8   ar
    17     7    35    1
    18     8     9    1
    19     9    10    2
    20     9    11    1
    21    11    18    1
    22    11    12    2
    23    12    13    1
    24    12    34    1
    25    13    25    1
    26    13    14    1
    27    13    33    1
    28    14    15    1
    29    14    16    1
    30    14    21    1
    31    16    17    1
    32    16    18    1
    33    16    20    1
    34    18    19    1
    35    20    43    1
    36    21    22    1
    37    21    23    1
    38    21    57    1
    39    23    24    2
    40    23    30    1
    41    24    25    1
    42    24    27    1
    43    25    26    2
    44    27    28    2
    45    27    29   am
    46    29    44    1
    47    29    45    1
    48    30    46    1
    49    31    47    1
    50    31    48    1
    51    31    49    1
    52    31    57    1
    53    32    50    1
    54    32    51    1
    55    32    52    1
    56    32    57    1
    57    33    53    1
    58    34    54    1
    59    35    55    1
    60    36    56    1
    61    57    58    1
