@<TRIPOS>MOLECULE
ZINC00538183
 52 55 0 0 0
SMALL
GASTEIGER

@<TRIPOS>ATOM
      1 C          -4.1794   -2.0060   -2.8189 C.ar    1  UNL1       -0.0599
      2 C          -5.2509   -2.8789   -2.8132 C.ar    1  UNL1       -0.0606
      3 C          -5.4998   -3.6582   -1.6983 C.ar    1  UNL1       -0.0462
      4 C          -4.6763   -3.5665   -0.5853 C.ar    1  UNL1        0.0341
      5 C          -3.5958   -2.6857   -0.5871 C.ar    1  UNL1        0.0479
      6 C          -3.3548   -1.9104   -1.7144 C.ar    1  UNL1       -0.0393
      7 N          -2.7394   -2.5726    0.5048 N.pl3   1  UNL1       -0.2981
      8 C          -3.0703   -2.9001    1.8169 C.ar    1  UNL1        0.0493
      9 C          -2.3596   -2.3070    2.8555 C.ar    1  UNL1       -0.0209
     10 C          -2.6580   -2.6124    4.1706 C.ar    1  UNL1        0.0428
     11 C          -3.6680   -3.5108    4.4638 C.ar    1  UNL1       -0.0422
     12 C          -4.3819   -4.1041    3.4388 C.ar    1  UNL1       -0.0448
     13 C          -4.0877   -3.8014    2.1171 C.ar    1  UNL1        0.0342
     14 S          -5.0112   -4.5655    0.8262 S.3     1  UNL1       -0.0857
     15 CL         -1.7629   -1.8659    5.4571 Cl      1  UNL1       -0.0835
     16 C          -1.3883   -2.0645    0.2547 C.3     1  UNL1        0.0221
     17 C          -1.3842   -0.5402    0.3860 C.3     1  UNL1        0.0036
     18 C           0.0269   -0.0095    0.1248 C.3     1  UNL1       -0.0304
     19 C          -0.6938    1.8805    1.4548 C.3     1  UNL1       -0.0312
     20 C          -0.7948    3.4074    1.4770 C.3     1  UNL1       -0.0012
     21 C           0.6139    4.0074    1.4670 C.3     1  UNL1        0.0449
     22 C           1.3636    3.5091    0.2284 C.3     1  UNL1       -0.0012
     23 C           1.4020    1.9793    0.2424 C.3     1  UNL1       -0.0312
     24 C           0.5205    5.5110    1.4283 C.2     1  UNL1        0.2140
     25 O           1.0056    6.1250    0.5017 O.2     1  UNL1       -0.2757
     26 N          -0.1019    6.1734    2.4234 N.am    1  UNL1       -0.3291
     27 H          -3.9863   -1.3964   -3.6892 H       1  UNL1        0.0618
     28 H          -5.8933   -2.9520   -3.6783 H       1  UNL1        0.0618
     29 H          -6.3376   -4.3398   -1.6937 H       1  UNL1        0.0629
     30 H          -2.5196   -1.2258   -1.7256 H       1  UNL1        0.0636
     31 H          -1.5704   -1.6041    2.6333 H       1  UNL1        0.0651
     32 H          -3.8989   -3.7483    5.4917 H       1  UNL1        0.0632
     33 H          -5.1711   -4.8050    3.6678 H       1  UNL1        0.0630
     34 H          -1.0757   -2.3434   -0.7516 H       1  UNL1        0.0470
     35 H          -0.6985   -2.4936    0.9815 H       1  UNL1        0.0470
     36 H          -1.6968   -0.2613    1.3923 H       1  UNL1        0.0332
     37 H          -2.0740   -0.1111   -0.3408 H       1  UNL1        0.0332
     38 H           0.3395   -0.2884   -0.8814 H       1  UNL1        0.0815
     39 H           0.7167   -0.4386    0.8516 H       1  UNL1        0.0815
     40 H          -1.6954    1.4504    1.4474 H       1  UNL1        0.0815
     41 H          -0.1587    1.5390    2.3408 H       1  UNL1        0.0815
     42 H          -1.3190    3.7244    2.3785 H       1  UNL1        0.0324
     43 H          -1.3422    3.7492    0.5986 H       1  UNL1        0.0324
     44 H           1.1480    3.6977    2.3653 H       1  UNL1        0.0398
     45 H           2.3815    3.8988    0.2379 H       1  UNL1        0.0324
     46 H           0.8504    3.8521   -0.6700 H       1  UNL1        0.0324
     47 H           1.9274    1.6374    1.1342 H       1  UNL1        0.0815
     48 H           1.9228    1.6210   -0.6455 H       1  UNL1        0.0815
     49 H          -0.4899    5.6823    3.1645 H       1  UNL1        0.1449
     50 H          -0.1620    7.1412    2.3984 H       1  UNL1        0.1449
     51 N           0.0162    1.4644    0.2268 N.4     1  UNL1        0.2353
     52 H          -0.4737    1.8514   -0.5884 H       1  UNL1        0.2033
@<TRIPOS>UNITY_ATOM_ATTR
51 1
charge 1
@<TRIPOS>BOND
     1     1     6   ar
     2     1     2   ar
     3     1    27    1
     4     2     3   ar
     5     2    28    1
     6     3     4   ar
     7     3    29    1
     8     4    14    1
     9     4     5   ar
    10     5     6   ar
    11     5     7    1
    12     6    30    1
    13     7     8    1
    14     7    16    1
    15     8    13   ar
    16     8     9   ar
    17     9    10   ar
    18     9    31    1
    19    10    11   ar
    20    10    15    1
    21    11    12   ar
    22    11    32    1
    23    12    13   ar
    24    12    33    1
    25    13    14    1
    26    16    17    1
    27    16    34    1
    28    16    35    1
    29    17    18    1
    30    17    36    1
    31    17    37    1
    32    18    38    1
    33    18    39    1
    34    18    51    1
    35    19    20    1
    36    19    40    1
    37    19    41    1
    38    19    51    1
    39    20    21    1
    40    20    42    1
    41    20    43    1
    42    21    22    1
    43    21    24    1
    44    21    44    1
    45    22    23    1
    46    22    45    1
    47    22    46    1
    48    23    47    1
    49    23    48    1
    50    23    51    1
    51    24    25    2
    52    24    26   am
    53    26    49    1
    54    26    50    1
    55    51    52    1
