@<TRIPOS>MOLECULE
ZINC00000607
 39 40 0 0 0
SMALL
GASTEIGER

@<TRIPOS>ATOM
      1 C           5.7927   -0.4328   -3.7243 C.3     1  UNL1       -0.0433
      2 C           6.5436   -2.7214   -3.4773 C.3     1  UNL1       -0.0433
      3 C           5.1692   -1.7064   -1.7617 C.3     1  UNL1       -0.0315
      4 C           3.8888   -0.8999   -1.5358 C.3     1  UNL1       -0.0003
      5 C           3.5820   -0.8390   -0.0381 C.3     1  UNL1        0.0312
      6 H           3.5351   -1.8508    0.3646 H       1  UNL1        0.0414
      7 C           4.6683   -0.0677    0.6662 C.ar    1  UNL1       -0.0383
      8 C           4.9805    1.2156    0.2582 C.ar    1  UNL1       -0.0579
      9 C           5.9741    1.9247    0.9071 C.ar    1  UNL1       -0.0615
     10 C           6.6619    1.3468    1.9578 C.ar    1  UNL1       -0.0617
     11 C           6.3529    0.0617    2.3627 C.ar    1  UNL1       -0.0615
     12 C           5.3564   -0.6457    1.7166 C.ar    1  UNL1       -0.0579
     13 C           2.2582   -0.1513    0.1759 C.ar    1  UNL1        0.0488
     14 C           1.8900    0.8940   -0.6502 C.ar    1  UNL1       -0.0398
     15 C           0.6697    1.5192   -0.4455 C.ar    1  UNL1       -0.0586
     16 C          -0.1380    1.0679    0.5875 C.ar    1  UNL1       -0.0436
     17 C           0.2971    0.0175    1.3728 C.ar    1  UNL1        0.0279
     18 N           1.4644   -0.5540    1.1487 N.ar    1  UNL1       -0.2593
     19 H           6.6676   -0.0432   -3.2039 H       1  UNL1        0.0777
     20 H           6.0064   -0.5049   -4.7907 H       1  UNL1        0.0777
     21 H           4.9480    0.2381   -3.5676 H       1  UNL1        0.0777
     22 H           6.2449   -3.7143   -3.1410 H       1  UNL1        0.0777
     23 H           6.7415   -2.7450   -4.5489 H       1  UNL1        0.0777
     24 H           7.4457   -2.4146   -2.9479 H       1  UNL1        0.0777
     25 H           5.9975   -1.2266   -1.2403 H       1  UNL1        0.0814
     26 H           5.0345   -2.7173   -1.3769 H       1  UNL1        0.0814
     27 H           3.0605   -1.3798   -2.0571 H       1  UNL1        0.0326
     28 H           4.0235    0.1110   -1.9205 H       1  UNL1        0.0326
     29 H           4.4460    1.6655   -0.5653 H       1  UNL1        0.0620
     30 H           6.2152    2.9288    0.5910 H       1  UNL1        0.0618
     31 H           7.4404    1.8996    2.4626 H       1  UNL1        0.0618
     32 H           6.8902   -0.3897    3.1836 H       1  UNL1        0.0618
     33 H           5.1153   -1.6499    2.0327 H       1  UNL1        0.0620
     34 H           2.5446    1.2195   -1.4451 H       1  UNL1        0.0636
     35 H           0.3556    2.3383   -1.0754 H       1  UNL1        0.0619
     36 H          -1.0970    1.5286    0.7730 H       1  UNL1        0.0633
     37 H          -0.3260   -0.3399    2.1792 H       1  UNL1        0.0829
     38 N           5.4402   -1.7741   -3.2131 N.4     1  UNL1        0.2309
     39 H           4.5954   -2.1033   -3.6951 H       1  UNL1        0.2028
@<TRIPOS>UNITY_ATOM_ATTR
38 1
charge 1
@<TRIPOS>BOND
     1     1    19    1
     2     1    20    1
     3     1    21    1
     4     1    38    1
     5     2    22    1
     6     2    23    1
     7     2    24    1
     8     2    38    1
     9     3     4    1
    10     3    25    1
    11     3    26    1
    12     3    38    1
    13     4     5    1
    14     4    27    1
    15     4    28    1
    16     5     6    1
    17     5     7    1
    18     5    13    1
    19     7    12   ar
    20     7     8   ar
    21     8     9   ar
    22     8    29    1
    23     9    10   ar
    24     9    30    1
    25    10    11   ar
    26    10    31    1
    27    11    12   ar
    28    11    32    1
    29    12    33    1
    30    13    18   ar
    31    13    14   ar
    32    14    15   ar
    33    14    34    1
    34    15    16   ar
    35    15    35    1
    36    16    17   ar
    37    16    36    1
    38    17    18   ar
    39    17    37    1
    40    38    39    1
