@<TRIPOS>MOLECULE
ZINC01482188
 12 12 0 0 0
SMALL
GASTEIGER

@<TRIPOS>ATOM
      1 C           2.3704    1.3381   -0.0139 C.ar    1  UNL1        0.0188
      2 C           2.3591   -0.0124   -0.0211 C.ar    1  UNL1        0.0090
      3 N           1.1653   -0.6799   -0.0128 N.ar    1  UNL1       -0.3416
      4 H           1.1572   -1.6499   -0.0179 H       1  UNL1        0.1672
      5 C           0.0021   -0.0041    0.0020 C.ar    1  UNL1        0.1579
      6 S          -1.4759   -0.8681    0.0110 S.2     1  UNL1       -0.0130
      7 N          -0.0162    1.3418    0.0094 N.ar    1  UNL1       -0.3028
      8 H          -0.8638    1.8134    0.0160 H       1  UNL1        0.1708
      9 C           1.1391    2.0371    0.0021 C.ar    1  UNL1        0.2519
     10 O           1.1237    3.2547    0.0084 O.2     1  UNL1       -0.2678
     11 H           3.3059    1.8776   -0.0200 H       1  UNL1        0.0686
     12 H           3.2884   -0.5626   -0.0329 H       1  UNL1        0.0809
@<TRIPOS>BOND
     1     1     9   ar
     2     1     2   ar
     3     1    11    1
     4     2     3   ar
     5     2    12    1
     6     3     4    1
     7     3     5   ar
     8     5     6    2
     9     5     7   ar
    10     7     8    1
    11     7     9   ar
    12     9    10    2
