@<TRIPOS>MOLECULE
ZINC11616209
 60 63 0 0 0
SMALL
GASTEIGER

@<TRIPOS>ATOM
      1 C           0.0021   -0.0041    0.0020 C.3     1  UNL1        0.0333
      2 C          -0.0184    1.5028    0.0103 C.2     1  UNL1        0.3045
      3 O           1.0197    2.1211    0.0037 O.2     1  UNL1       -0.2511
      4 O          -1.1898    2.1580    0.0194 O.3     1  UNL1       -0.4574
      5 C          -1.1336    3.6073    0.0270 C.3     1  UNL1        0.1215
      6 H          -0.2259    3.9351    0.5336 H       1  UNL1        0.0779
      7 C          -2.3575    4.1722    0.7567 C.3     1  UNL1       -0.0114
      8 C          -3.6099    3.7407   -0.0099 C.3     1  UNL1       -0.0426
      9 C          -3.6064    4.3092   -1.4158 C.3     1  UNL1       -0.0166
     10 H          -3.9999    5.3367   -1.3303 H       1  UNL1        0.0348
     11 C          -4.5337    3.5750   -2.3476 C.3     1  UNL1       -0.0314
     12 H          -5.5384    3.8607   -1.9955 H       1  UNL1        0.0309
     13 C          -4.5030    2.0559   -2.2450 C.3     1  UNL1       -0.0487
     14 C          -5.8879    1.5259   -2.6818 C.3     1  UNL1       -0.0425
     15 C          -6.2739    2.2135   -3.9696 C.3     1  UNL1        0.0223
     16 C          -5.0439    2.8567   -4.6406 C.3     1  UNL1       -0.0278
     17 H          -4.2533    2.1104   -4.8019 H       1  UNL1        0.0310
     18 C          -4.4829    4.0084   -3.8041 C.3     1  UNL1       -0.0339
     19 H          -5.0921    4.9000   -3.9426 H       1  UNL1        0.0307
     20 C          -3.0840    4.2817   -4.3308 C.3     1  UNL1       -0.0460
     21 C          -2.1548    5.0243   -3.4014 C.3     1  UNL1       -0.0311
     22 C          -2.2341    4.4441   -2.0052 C.2     1  UNL1       -0.0667
     23 C          -1.1386    4.1258   -1.3841 C.2     1  UNL1       -0.0445
     24 C          -5.6125    3.3003   -5.9998 C.3     1  UNL1       -0.0447
     25 C          -6.6353    2.1931   -6.3651 C.3     1  UNL1       -0.0005
     26 C          -6.8047    1.3161   -5.0968 C.3     1  UNL1        0.1784
     27 C          -6.0207    0.0854   -5.2422 C.1     1  UNL1       -0.0576
     28 C          -5.3930   -0.8999   -5.3586 C.1     1  UNL1       -0.1152
     29 O          -8.2049    1.0152   -4.8776 O.3     1  UNL1       -0.4447
     30 C          -8.8102    0.2352   -5.7870 C.2     1  UNL1        0.3054
     31 O          -8.1881   -0.1817   -6.7352 O.2     1  UNL1       -0.2511
     32 C         -10.2657   -0.1204   -5.6253 C.3     1  UNL1        0.0333
     33 C          -7.3499    3.2734   -3.6859 C.3     1  UNL1       -0.0547
     34 H           1.0345   -0.3534   -0.0097 H       1  UNL1        0.0342
     35 H          -0.4983   -0.3791    0.8948 H       1  UNL1        0.0342
     36 H          -0.5153   -0.3696   -0.8850 H       1  UNL1        0.0342
     37 H          -2.3971    3.7799    1.7716 H       1  UNL1        0.0304
     38 H          -2.3023    5.2597    0.7824 H       1  UNL1        0.0304
     39 H          -3.6411    2.6553   -0.0359 H       1  UNL1        0.0272
     40 H          -4.4899    4.1082    0.5219 H       1  UNL1        0.0272
     41 H          -3.7334    1.6553   -2.9043 H       1  UNL1        0.0268
     42 H          -4.3092    1.7347   -1.2256 H       1  UNL1        0.0268
     43 H          -5.8545    0.4467   -2.7673 H       1  UNL1        0.0272
     44 H          -6.6166    1.7858   -1.9005 H       1  UNL1        0.0272
     45 H          -3.1802    4.8591   -5.2540 H       1  UNL1        0.0271
     46 H          -2.6257    3.3234   -4.5845 H       1  UNL1        0.0271
     47 H          -2.4403    6.0776   -3.3663 H       1  UNL1        0.0310
     48 H          -1.1308    4.9425   -3.7667 H       1  UNL1        0.0310
     49 H          -0.1957    4.2312   -1.8969 H       1  UNL1        0.0608
     50 H          -6.0967    4.2725   -5.9242 H       1  UNL1        0.0270
     51 H          -4.8159    3.3408   -6.7472 H       1  UNL1        0.0270
     52 H          -7.5913    2.6415   -6.6326 H       1  UNL1        0.0314
     53 H          -6.2578    1.5874   -7.1879 H       1  UNL1        0.0314
     54 H          -4.8317   -1.7811   -5.4627 H       1  UNL1        0.1229
     55 H         -10.8803    0.6277   -6.1260 H       1  UNL1        0.0342
     56 H         -10.4519   -1.0990   -6.0679 H       1  UNL1        0.0342
     57 H         -10.5176   -0.1472   -4.5652 H       1  UNL1        0.0342
     58 H          -6.9538    4.0174   -2.9948 H       1  UNL1        0.0237
     59 H          -7.6358    3.7596   -4.6186 H       1  UNL1        0.0237
     60 H          -8.2234    2.7948   -3.2431 H       1  UNL1        0.0237
@<TRIPOS>BOND
     1     1     2    1
     2     1    34    1
     3     1    35    1
     4     1    36    1
     5     2     3    2
     6     2     4    1
     7     4     5    1
     8     5     6    1
     9     5    23    1
    10     5     7    1
    11     7     8    1
    12     7    37    1
    13     7    38    1
    14     8     9    1
    15     8    39    1
    16     8    40    1
    17     9    10    1
    18     9    22    1
    19     9    11    1
    20    11    12    1
    21    11    18    1
    22    11    13    1
    23    13    14    1
    24    13    41    1
    25    13    42    1
    26    14    15    1
    27    14    43    1
    28    14    44    1
    29    15    26    1
    30    15    16    1
    31    15    33    1
    32    16    17    1
    33    16    18    1
    34    16    24    1
    35    18    19    1
    36    18    20    1
    37    20    21    1
    38    20    45    1
    39    20    46    1
    40    21    22    1
    41    21    47    1
    42    21    48    1
    43    22    23    2
    44    23    49    1
    45    24    25    1
    46    24    50    1
    47    24    51    1
    48    25    26    1
    49    25    52    1
    50    25    53    1
    51    26    27    1
    52    26    29    1
    53    27    28    3
    54    28    54    1
    55    29    30    1
    56    30    31    2
    57    30    32    1
    58    32    55    1
    59    32    56    1
    60    32    57    1
    61    33    58    1
    62    33    59    1
    63    33    60    1
