@<TRIPOS>MOLECULE
ZINC11616700
 76 79 0 0 0
SMALL
GASTEIGER

@<TRIPOS>ATOM
      1 C          -2.1908   -8.0293    5.1661 C.3     1  UNL1       -0.0648
      2 C          -1.1799   -7.5923    4.1040 C.3     1  UNL1       -0.0458
      3 C          -0.9567   -6.0819    4.2033 C.3     1  UNL1        0.0447
      4 C           0.0391   -5.6514    3.1572 C.2     1  UNL1        0.3080
      5 O           0.5208   -6.4688    2.4091 O.2     1  UNL1       -0.2508
      6 O           0.3908   -4.3600    3.0566 O.3     1  UNL1       -0.4494
      7 C           1.4398   -4.0345    2.1068 C.3     1  UNL1        0.1821
      8 C           1.0015   -4.4206    0.6818 C.3     1  UNL1        0.0042
      9 H           0.0145   -4.8824    0.7069 H       1  UNL1        0.0341
     10 C           0.9521   -3.1090   -0.1352 C.3     1  UNL1       -0.0426
     11 C           0.7752   -2.0221    0.9416 C.3     1  UNL1       -0.0253
     12 H          -0.2578   -2.0257    1.2894 H       1  UNL1        0.0311
     13 C           1.6946   -2.5083    2.0766 C.3     1  UNL1        0.0208
     14 C           3.1666   -2.3097    1.7086 C.3     1  UNL1       -0.0141
     15 C           3.4390   -0.8638    1.3013 C.3     1  UNL1        0.0910
     16 H           4.4973   -0.7406    1.0711 H       1  UNL1        0.0626
     17 C           2.6039   -0.5396    0.0746 C.3     1  UNL1        0.1526
     18 C           1.1266   -0.6439    0.4358 C.3     1  UNL1        0.0003
     19 H           0.9099    0.0858    1.2160 H       1  UNL1        0.0336
     20 C           0.3003   -0.3007   -0.8108 C.3     1  UNL1       -0.0432
     21 C           0.4089    1.2080   -1.0399 C.3     1  UNL1       -0.0301
     22 C           1.8453    1.6405   -1.0062 C.2     1  UNL1       -0.0532
     23 C           2.1548    2.8780   -1.4575 C.2     1  UNL1       -0.0148
     24 C           3.5928    3.2436   -1.3365 C.2     1  UNL1        0.1787
     25 O           4.1939    3.8375   -2.2121 O.2     1  UNL1       -0.2879
     26 C           4.2387    2.8269   -0.0611 C.2     1  UNL1       -0.0180
     27 C           3.9064    1.5900    0.3697 C.2     1  UNL1       -0.0674
     28 C           2.9660    0.8003   -0.4961 C.3     1  UNL1        0.0443
     29 C           3.7862    0.4775   -1.7467 C.3     1  UNL1       -0.0493
     30 F           2.8887   -1.5089   -0.8931 F       1  UNL1       -0.2377
     31 O           3.0736    0.0136    2.3684 O.3     1  UNL1       -0.3886
     32 C           1.3345   -1.8578    3.4138 C.3     1  UNL1       -0.0551
     33 C           2.0164   -5.3848    0.0644 C.3     1  UNL1       -0.0583
     34 C           2.7103   -4.7583    2.4715 C.2     1  UNL1        0.2144
     35 O           3.5546   -4.9568    1.6312 O.2     1  UNL1       -0.2895
     36 C           2.9273   -5.2341    3.8849 C.3     1  UNL1        0.1542
     37 O           4.2657   -5.7831    4.0107 O.3     1  UNL1       -0.4568
     38 C           4.6202   -6.2542    5.2165 C.2     1  UNL1        0.3072
     39 O           3.8382   -6.2094    6.1365 O.2     1  UNL1       -0.2509
     40 C           5.9937   -6.8389    5.4229 C.3     1  UNL1        0.0421
     41 C           6.1395   -7.2983    6.8751 C.3     1  UNL1       -0.0552
     42 H          -2.3498   -9.1053    5.0954 H       1  UNL1        0.0230
     43 H          -1.8071   -7.7830    6.1561 H       1  UNL1        0.0230
     44 H          -3.1358   -7.5109    5.0033 H       1  UNL1        0.0230
     45 H          -1.5636   -7.8386    3.1140 H       1  UNL1        0.0268
     46 H          -0.2349   -8.1106    4.2668 H       1  UNL1        0.0268
     47 H          -0.5730   -5.8356    5.1933 H       1  UNL1        0.0377
     48 H          -1.9016   -5.5635    4.0405 H       1  UNL1        0.0377
     49 H           0.1030   -3.1141   -0.8186 H       1  UNL1        0.0272
     50 H           1.8829   -2.9594   -0.6824 H       1  UNL1        0.0272
     51 H           3.7876   -2.5626    2.5679 H       1  UNL1        0.0298
     52 H           3.4198   -2.9685    0.8779 H       1  UNL1        0.0298
     53 H          -0.7421   -0.5759   -0.6505 H       1  UNL1        0.0272
     54 H           0.6956   -0.8350   -1.6747 H       1  UNL1        0.0272
     55 H          -0.0199    1.4570   -2.0105 H       1  UNL1        0.0310
     56 H          -0.1436    1.7317   -0.2598 H       1  UNL1        0.0310
     57 H           1.4165    3.5478   -1.8732 H       1  UNL1        0.0656
     58 H           4.9220    3.4654    0.4791 H       1  UNL1        0.0653
     59 H           4.2979    1.1883    1.2926 H       1  UNL1        0.0583
     60 H           3.1796   -0.1075   -2.4380 H       1  UNL1        0.0242
     61 H           4.0939    1.4053   -2.2289 H       1  UNL1        0.0242
     62 H           4.6694   -0.0953   -1.4640 H       1  UNL1        0.0242
     63 H           3.5565   -0.1451    3.1910 H       1  UNL1        0.2099
     64 H           0.3060   -2.1080    3.6742 H       1  UNL1        0.0237
     65 H           2.0057   -2.2264    4.1895 H       1  UNL1        0.0237
     66 H           1.4352   -0.7757    3.3302 H       1  UNL1        0.0237
     67 H           2.9518   -4.8573   -0.1224 H       1  UNL1        0.0234
     68 H           2.1966   -6.2117    0.7514 H       1  UNL1        0.0234
     69 H           1.6239   -5.7725   -0.8757 H       1  UNL1        0.0234
     70 H           2.8217   -4.4651    4.5154 H       1  UNL1        0.0780
     71 H           2.1946   -6.0045    4.1254 H       1  UNL1        0.0780
     72 H           6.1297   -7.6910    4.7569 H       1  UNL1        0.0375
     73 H           6.7473   -6.0826    5.2037 H       1  UNL1        0.0375
     74 H           6.0035   -6.4462    7.5411 H       1  UNL1        0.0235
     75 H           5.3859   -8.0546    7.0943 H       1  UNL1        0.0235
     76 H           7.1329   -7.7212    7.0244 H       1  UNL1        0.0235
@<TRIPOS>BOND
     1     1     2    1
     2     1    42    1
     3     1    43    1
     4     1    44    1
     5     2     3    1
     6     2    45    1
     7     2    46    1
     8     3     4    1
     9     3    47    1
    10     3    48    1
    11     4     5    2
    12     4     6    1
    13     6     7    1
    14     7    13    1
    15     7     8    1
    16     7    34    1
    17     8     9    1
    18     8    10    1
    19     8    33    1
    20    10    11    1
    21    10    49    1
    22    10    50    1
    23    11    12    1
    24    11    18    1
    25    11    13    1
    26    13    14    1
    27    13    32    1
    28    14    15    1
    29    14    51    1
    30    14    52    1
    31    15    16    1
    32    15    17    1
    33    15    31    1
    34    17    28    1
    35    17    18    1
    36    17    30    1
    37    18    19    1
    38    18    20    1
    39    20    21    1
    40    20    53    1
    41    20    54    1
    42    21    22    1
    43    21    55    1
    44    21    56    1
    45    22    28    1
    46    22    23    2
    47    23    24    1
    48    23    57    1
    49    24    25    2
    50    24    26    1
    51    26    27    2
    52    26    58    1
    53    27    28    1
    54    27    59    1
    55    28    29    1
    56    29    60    1
    57    29    61    1
    58    29    62    1
    59    31    63    1
    60    32    64    1
    61    32    65    1
    62    32    66    1
    63    33    67    1
    64    33    68    1
    65    33    69    1
    66    34    35    2
    67    34    36    1
    68    36    37    1
    69    36    70    1
    70    36    71    1
    71    37    38    1
    72    38    39    2
    73    38    40    1
    74    40    41    1
    75    40    72    1
    76    40    73    1
    77    41    74    1
    78    41    75    1
    79    41    76    1
