@<TRIPOS>MOLECULE
ZINC03831307
 44 46 0 0 0
SMALL
GASTEIGER

@<TRIPOS>ATOM
      1 C          -2.9313    1.2172    1.6505 C.3     1  UNL1       -0.0191
      2 C          -2.1014    1.3457    0.3716 C.3     1  UNL1        0.1726
      3 H          -2.5873    0.7949   -0.4337 H       1  UNL1        0.0828
      4 C          -0.7245    0.7804    0.6074 C.2     1  UNL1        0.2542
      5 O           0.2454    1.5072    0.5622 O.2     1  UNL1       -0.2717
      6 N          -0.5703   -0.5339    0.8630 N.am    1  UNL1       -0.2987
      7 CA          0.7688   -1.0846    1.0862 C.3     1  UNL1        0.1278
      8 HA          1.3772   -0.4551    1.7354 H       1  UNL1        0.0622
      9 C           0.7546   -2.5555    1.5058 C.3     1  UNL1        0.1003
     10 H           1.3249   -2.8237    2.3951 H       1  UNL1        0.0640
     11 N           1.3817   -2.7768    0.1850 N.am    1  UNL1       -0.2761
     12 C           1.4708   -1.4788   -0.1895 C.2     1  UNL1        0.2401
     13 O           1.9229   -0.8849   -1.1454 O.2     1  UNL1       -0.2734
     14 CA          0.6765   -3.7165   -0.6896 C.3     1  UNL1        0.0807
     15 HA          0.9602   -4.7362   -0.4292 H       1  UNL1        0.0576
     16 C          -0.8635   -3.5484   -0.5155 C.3     1  UNL1        0.0366
     17 S          -0.8996   -3.3444    1.3221 S.3     1  UNL1       -0.1275
     18 C          -1.3794   -2.2989   -1.2322 C.3     1  UNL1       -0.0486
     19 C          -1.6218   -4.8005   -0.9606 C.3     1  UNL1       -0.0486
     20 C           1.0510   -3.4434   -2.1235 C.2     1  UNL1        0.0635
     21 O           0.9827   -2.3197   -2.5622 O.co2   1  UNL1       -0.5478
     22 O          -1.9948    2.7239    0.0095 O.3     1  UNL1       -0.4799
     23 C          -3.0179    3.2532   -0.7117 C.ar    1  UNL1        0.1216
     24 C          -4.1387    2.4860   -0.9942 C.ar    1  UNL1       -0.0199
     25 C          -5.1800    3.0284   -1.7221 C.ar    1  UNL1       -0.0583
     26 C          -5.1005    4.3307   -2.1796 C.ar    1  UNL1       -0.0615
     27 C          -3.9821    5.0956   -1.9043 C.ar    1  UNL1       -0.0583
     28 C          -2.9408    4.5599   -1.1715 C.ar    1  UNL1       -0.0199
     29 H          -3.9272    1.6261    1.4800 H       1  UNL1        0.0270
     30 H          -3.0126    0.1659    1.9268 H       1  UNL1        0.0270
     31 H          -2.4454    1.7679    2.4559 H       1  UNL1        0.0270
     32 H          -1.3460   -1.1152    0.8991 H       1  UNL1        0.1496
     33 H          -1.2564   -2.4205   -2.3084 H       1  UNL1        0.0244
     34 H          -2.4351   -2.1571   -1.0009 H       1  UNL1        0.0244
     35 H          -0.8141   -1.4289   -0.8979 H       1  UNL1        0.0244
     36 H          -1.2993   -5.6525   -0.3620 H       1  UNL1        0.0244
     37 H          -2.6919   -4.6449   -0.8242 H       1  UNL1        0.0244
     38 H          -1.4142   -4.9962   -2.0126 H       1  UNL1        0.0244
     39 H          -4.1991    1.4671   -0.6412 H       1  UNL1        0.0654
     40 H          -6.0547    2.4329   -1.9385 H       1  UNL1        0.0619
     41 H          -5.9136    4.7513   -2.7527 H       1  UNL1        0.0618
     42 H          -3.9227    6.1128   -2.2622 H       1  UNL1        0.0619
     43 H          -2.0675    5.1578   -0.9564 H       1  UNL1        0.0654
     44 OXT         1.4604   -4.4485   -2.9133 O.co2   1  UNL1       -0.5478
@<TRIPOS>UNITY_ATOM_ATTR
44 1
charge -1
@<TRIPOS>BOND
     1     1     2    1
     2     1    29    1
     3     1    30    1
     4     1    31    1
     5     2     3    1
     6     2     4    1
     7     2    22    1
     8     4     5    2
     9     4     6   am
    10     6     7    1
    11     6    32    1
    12     7     8    1
    13     7    12    1
    14     7     9    1
    15     9    10    1
    16     9    17    1
    17     9    11    1
    18    11    12   am
    19    11    14    1
    20    12    13    2
    21    14    15    1
    22    14    16    1
    23    14    20    1
    24    16    17    1
    25    16    18    1
    26    16    19    1
    27    18    33    1
    28    18    34    1
    29    18    35    1
    30    19    36    1
    31    19    37    1
    32    19    38    1
    33    20    21   ar
    34    20    44   ar
    35    22    23    1
    36    23    28   ar
    37    23    24   ar
    38    24    25   ar
    39    24    39    1
    40    25    26   ar
    41    25    40    1
    42    26    27   ar
    43    26    41    1
    44    27    28   ar
    45    27    42    1
    46    28    43    1
