@<TRIPOS>MOLECULE
ZINC11615996
 69 72 0 0 0
SMALL
GASTEIGER

@<TRIPOS>ATOM
      1 C           4.7913   11.9356   -1.7506 C.3     1  UNL1       -0.0415
      2 C           3.3076   11.5671   -1.6894 C.3     1  UNL1        0.0479
      3 O           2.8289   11.2978   -3.0087 O.3     1  UNL1       -0.3490
      4 C           1.4461   10.9418   -3.0638 C.3     1  UNL1        0.1879
      5 H           0.8415   11.6905   -2.5519 H       1  UNL1        0.0937
      6 C           0.9874   10.7919   -4.5313 C.3     1  UNL1        0.1344
      7 H           0.4851   11.6984   -4.8689 H       1  UNL1        0.0671
      8 C          -0.0020    9.6057   -4.4961 C.3     1  UNL1        0.1183
      9 H           0.3579    8.7895   -5.1226 H       1  UNL1        0.0651
     10 C          -0.0241    9.1792   -3.0115 C.3     1  UNL1        0.1186
     11 H          -0.8552    9.6561   -2.4921 H       1  UNL1        0.0651
     12 O           1.2351    9.6393   -2.4742 O.3     1  UNL1       -0.3401
     13 C          -0.1281    7.6571   -2.8961 C.3     1  UNL1        0.1110
     14 H           0.7156    7.1954   -3.4091 H       1  UNL1        0.0646
     15 C          -0.1094    7.2551   -1.4200 C.3     1  UNL1        0.0768
     16 O          -0.0891    5.8302   -1.3146 O.3     1  UNL1       -0.3725
     17 C          -0.0705    5.3471    0.0302 C.3     1  UNL1        0.0728
     18 C          -0.0501    3.8402    0.0223 C.ar    1  UNL1       -0.0219
     19 C           1.1563    3.1654    0.0081 C.ar    1  UNL1       -0.0564
     20 C           1.1750    1.7832    0.0004 C.ar    1  UNL1       -0.0614
     21 C          -0.0126    1.0758    0.0080 C.ar    1  UNL1       -0.0617
     22 C          -1.2190    1.7506    0.0173 C.ar    1  UNL1       -0.0614
     23 C          -1.2377    3.1328    0.0290 C.ar    1  UNL1       -0.0564
     24 O          -1.3486    7.2163   -3.4944 O.3     1  UNL1       -0.3671
     25 C          -1.2806    5.9031   -4.0537 C.3     1  UNL1        0.0733
     26 C          -2.6152    5.5430   -4.6540 C.ar    1  UNL1       -0.0219
     27 C          -3.5713    4.9087   -3.8830 C.ar    1  UNL1       -0.0564
     28 C          -4.7973    4.5827   -4.4322 C.ar    1  UNL1       -0.0614
     29 C          -5.0633    4.8818   -5.7554 C.ar    1  UNL1       -0.0617
     30 C          -4.1053    5.5114   -6.5278 C.ar    1  UNL1       -0.0614
     31 C          -2.8813    5.8421   -5.9771 C.ar    1  UNL1       -0.0564
     32 O          -1.3025   10.0223   -4.9168 O.3     1  UNL1       -0.3666
     33 C          -1.5679    9.7891   -6.3015 C.3     1  UNL1        0.0733
     34 C          -2.9592   10.2638   -6.6332 C.ar    1  UNL1       -0.0219
     35 C          -4.0297    9.3958   -6.5252 C.ar    1  UNL1       -0.0564
     36 C          -5.3065    9.8325   -6.8252 C.ar    1  UNL1       -0.0614
     37 C          -5.5116   11.1343   -7.2424 C.ar    1  UNL1       -0.0617
     38 C          -4.4405   12.0009   -7.3550 C.ar    1  UNL1       -0.0614
     39 C          -3.1643   11.5655   -7.0508 C.ar    1  UNL1       -0.0564
     40 O           2.1004   10.4907   -5.3755 O.3     1  UNL1       -0.3841
     41 H           5.3543   11.1064   -2.1792 H       1  UNL1        0.0252
     42 H           4.9203   12.8219   -2.3719 H       1  UNL1        0.0252
     43 H           5.1565   12.1410   -0.7443 H       1  UNL1        0.0252
     44 H           2.7447   12.3963   -1.2609 H       1  UNL1        0.0558
     45 H           3.1787   10.6808   -1.0682 H       1  UNL1        0.0558
     46 H          -1.0004    7.6433   -0.9264 H       1  UNL1        0.0587
     47 H           0.7793    7.6675   -0.9423 H       1  UNL1        0.0587
     48 H          -0.9607    5.6956    0.5538 H       1  UNL1        0.0610
     49 H           0.8190    5.7199    0.5379 H       1  UNL1        0.0610
     50 H           2.0842    3.7181    0.0025 H       1  UNL1        0.0621
     51 H           2.1175    1.2560   -0.0111 H       1  UNL1        0.0618
     52 H           0.0021   -0.0041    0.0020 H       1  UNL1        0.0618
     53 H          -2.1469    1.1980    0.0188 H       1  UNL1        0.0618
     54 H          -2.1802    3.6600    0.0397 H       1  UNL1        0.0621
     55 H          -0.5148    5.8775   -4.8289 H       1  UNL1        0.0610
     56 H          -1.0293    5.1874   -3.2710 H       1  UNL1        0.0610
     57 H          -3.3618    4.6710   -2.8505 H       1  UNL1        0.0621
     58 H          -5.5456    4.0905   -3.8288 H       1  UNL1        0.0618
     59 H          -6.0195    4.6231   -6.1857 H       1  UNL1        0.0618
     60 H          -4.3131    5.7447   -7.5616 H       1  UNL1        0.0618
     61 H          -2.1327    6.3337   -6.5807 H       1  UNL1        0.0621
     62 H          -0.8440   10.3345   -6.9070 H       1  UNL1        0.0610
     63 H          -1.4880    8.7227   -6.5122 H       1  UNL1        0.0610
     64 H          -3.8690    8.3776   -6.2032 H       1  UNL1        0.0621
     65 H          -6.1434    9.1555   -6.7369 H       1  UNL1        0.0618
     66 H          -6.5087   11.4745   -7.4801 H       1  UNL1        0.0618
     67 H          -4.6007   13.0180   -7.6809 H       1  UNL1        0.0618
     68 H          -2.3274   12.2424   -7.1391 H       1  UNL1        0.0621
     69 H           2.7534   11.2016   -5.4340 H       1  UNL1        0.2101
@<TRIPOS>BOND
     1     1     2    1
     2     1    41    1
     3     1    42    1
     4     1    43    1
     5     2     3    1
     6     2    44    1
     7     2    45    1
     8     3     4    1
     9     4     5    1
    10     4    12    1
    11     4     6    1
    12     6     7    1
    13     6     8    1
    14     6    40    1
    15     8     9    1
    16     8    10    1
    17     8    32    1
    18    10    11    1
    19    10    12    1
    20    10    13    1
    21    13    14    1
    22    13    15    1
    23    13    24    1
    24    15    16    1
    25    15    46    1
    26    15    47    1
    27    16    17    1
    28    17    18    1
    29    17    48    1
    30    17    49    1
    31    18    23   ar
    32    18    19   ar
    33    19    20   ar
    34    19    50    1
    35    20    21   ar
    36    20    51    1
    37    21    22   ar
    38    21    52    1
    39    22    23   ar
    40    22    53    1
    41    23    54    1
    42    24    25    1
    43    25    26    1
    44    25    55    1
    45    25    56    1
    46    26    31   ar
    47    26    27   ar
    48    27    28   ar
    49    27    57    1
    50    28    29   ar
    51    28    58    1
    52    29    30   ar
    53    29    59    1
    54    30    31   ar
    55    30    60    1
    56    31    61    1
    57    32    33    1
    58    33    34    1
    59    33    62    1
    60    33    63    1
    61    34    39   ar
    62    34    35   ar
    63    35    36   ar
    64    35    64    1
    65    36    37   ar
    66    36    65    1
    67    37    38   ar
    68    37    66    1
    69    38    39   ar
    70    38    67    1
    71    39    68    1
    72    40    69    1
