@<TRIPOS>MOLECULE
ZINC03830615
 53 57 0 0 0
SMALL
GASTEIGER

@<TRIPOS>ATOM
      1 C          -0.3219    1.3878   -0.9777 C.3     1  UNL1       -0.0031
      2 C          -0.1997   -0.0305   -0.4832 C.2     1  UNL1        0.1621
      3 O          -1.1930   -0.6784   -0.2560 O.2     1  UNL1       -0.2946
      4 C           1.1580   -0.6383   -0.2730 C.3     1  UNL1        0.1288
      5 C           1.5374   -0.6312    1.2292 C.3     1  UNL1       -0.0162
      6 C           2.1076   -2.0426    1.5454 C.3     1  UNL1       -0.0460
      7 C           2.3515   -2.6398    0.1541 C.3     1  UNL1       -0.0259
      8 H           3.2553   -2.1398   -0.2597 H       1  UNL1        0.0313
      9 C           1.1242   -2.1391   -0.6336 C.3     1  UNL1        0.0070
     10 C           1.2233   -2.4401   -2.1066 C.3     1  UNL1       -0.0440
     11 C           2.0784   -3.7010   -2.3519 C.3     1  UNL1       -0.0483
     12 C           1.8685   -4.6662   -1.1972 C.3     1  UNL1       -0.0247
     13 H           0.7883   -4.7287   -0.9988 H       1  UNL1        0.0315
     14 C           2.5626   -4.1141    0.0480 C.3     1  UNL1       -0.0142
     15 H           3.6547   -4.2245   -0.0972 H       1  UNL1        0.0349
     16 C           2.2336   -4.9517    1.2358 C.2     1  UNL1       -0.0617
     17 C           1.9452   -6.2498    1.0922 C.2     1  UNL1        0.0412
     18 C           1.9249   -6.8990   -0.2292 C.2     1  UNL1       -0.0196
     19 C           1.5168   -8.1839   -0.2806 C.2     1  UNL1       -0.0138
     20 C           1.1662   -8.8351   -1.4705 C.2     1  UNL1        0.1598
     21 O           0.9162  -10.0221   -1.4684 O.2     1  UNL1       -0.2924
     22 C           1.1032   -8.0470   -2.7541 C.3     1  UNL1        0.0255
     23 H           0.2582   -8.2693   -3.2406 H       1  UNL1        0.0384
     24 C           2.4215   -7.7699   -3.4788 C.3     1  UNL1       -0.0386
     25 C           1.7088   -6.6457   -2.7315 C.3     1  UNL1       -0.0208
     26 H           1.2021   -5.8967   -3.3463 H       1  UNL1        0.0316
     27 C           2.3044   -6.1015   -1.4486 C.3     1  UNL1        0.0013
     28 C           3.8223   -6.1514   -1.5944 C.3     1  UNL1       -0.0549
     29 CL          1.5851   -7.1887    2.5097 Cl      1  UNL1       -0.0836
     30 C          -0.1853   -2.6896   -0.0592 C.3     1  UNL1       -0.0563
     31 O           2.1487    0.0319   -1.0456 O.3     1  UNL1       -0.3805
     32 H           0.5908    1.7733   -1.1133 H       1  UNL1        0.0307
     33 H          -0.8646    1.3976   -1.9229 H       1  UNL1        0.0307
     34 H          -0.8625    1.9837   -0.2422 H       1  UNL1        0.0307
     35 H           2.2967    0.1275    1.4178 H       1  UNL1        0.0297
     36 H           0.6562   -0.4379    1.8402 H       1  UNL1        0.0297
     37 H           1.3978   -2.6326    2.1179 H       1  UNL1        0.0269
     38 H           3.0508   -1.9545    2.0907 H       1  UNL1        0.0269
     39 H           0.2183   -2.6037   -2.5166 H       1  UNL1        0.0272
     40 H           1.6693   -1.5930   -2.6382 H       1  UNL1        0.0272
     41 H           3.1322   -3.4148   -2.4089 H       1  UNL1        0.0269
     42 H           1.7834   -4.1626   -3.2936 H       1  UNL1        0.0269
     43 H           2.2356   -4.5178    2.2198 H       1  UNL1        0.0589
     44 H           1.3870   -8.7205    0.6454 H       1  UNL1        0.0656
     45 H           3.3132   -8.2263   -3.0557 H       1  UNL1        0.0275
     46 H           2.3883   -7.7519   -4.5716 H       1  UNL1        0.0275
     47 H           4.2874   -5.7844   -0.6795 H       1  UNL1        0.0238
     48 H           4.1364   -7.1794   -1.7747 H       1  UNL1        0.0238
     49 H           4.1274   -5.5259   -2.4333 H       1  UNL1        0.0238
     50 H          -1.0015   -2.4810   -0.7508 H       1  UNL1        0.0236
     51 H          -0.0955   -3.7666    0.0826 H       1  UNL1        0.0236
     52 H          -0.3904   -2.2128    0.8993 H       1  UNL1        0.0236
     53 H           2.2323    0.9743   -0.8459 H       1  UNL1        0.2108
@<TRIPOS>BOND
     1     1     2    1
     2     1    32    1
     3     1    33    1
     4     1    34    1
     5     2     3    2
     6     2     4    1
     7     4     9    1
     8     4     5    1
     9     4    31    1
    10     5     6    1
    11     5    35    1
    12     5    36    1
    13     6     7    1
    14     6    37    1
    15     6    38    1
    16     7     8    1
    17     7    14    1
    18     7     9    1
    19     9    10    1
    20     9    30    1
    21    10    11    1
    22    10    39    1
    23    10    40    1
    24    11    12    1
    25    11    41    1
    26    11    42    1
    27    12    13    1
    28    12    27    1
    29    12    14    1
    30    14    15    1
    31    14    16    1
    32    16    17    2
    33    16    43    1
    34    17    18    1
    35    17    29    1
    36    18    27    1
    37    18    19    2
    38    19    20    1
    39    19    44    1
    40    20    21    2
    41    20    22    1
    42    22    23    1
    43    22    25    1
    44    22    24    1
    45    24    25    1
    46    24    45    1
    47    24    46    1
    48    25    26    1
    49    25    27    1
    50    27    28    1
    51    28    47    1
    52    28    48    1
    53    28    49    1
    54    30    50    1
    55    30    51    1
    56    30    52    1
    57    31    53    1
