@<TRIPOS>MOLECULE
ZINC03831496
 32 32 0 0 0
SMALL
GASTEIGER

@<TRIPOS>ATOM
      1 C           2.3692    1.0787    3.4856 C.3     1  UNL1       -0.0650
      2 C           1.5195    1.6259    2.3370 C.3     1  UNL1       -0.0519
      3 C           0.0818    1.1229    2.4815 C.3     1  UNL1       -0.0214
      4 H           0.0820    0.0345    2.5418 H       1  UNL1        0.0313
      5 C          -0.5363    1.7040    3.7547 C.3     1  UNL1       -0.0610
      6 C          -0.7381    1.5663    1.2682 C.3     1  UNL1        0.1293
      7 C          -2.0825    0.8663    1.3308 C.2     1  UNL1        0.2360
      8 O          -2.1612   -0.3433    1.3491 O.2     1  UNL1       -0.2742
      9 N          -3.1880    1.6403    1.3651 N.am    1  UNL1       -0.2390
     10 C          -3.1181    2.9763    1.3455 C.2     1  UNL1        0.3122
     11 O          -4.1630    3.5952    1.3796 O.2     1  UNL1       -0.2520
     12 N          -1.9818    3.6804    1.2907 N.am    1  UNL1       -0.2390
     13 C          -0.7720    3.0828    1.2501 C.2     1  UNL1        0.2360
     14 O           0.2494    3.7339    1.2014 O.2     1  UNL1       -0.2742
     15 C          -0.0123    1.0912    0.0079 C.3     1  UNL1       -0.0123
     16 C          -0.7513    1.5792   -1.2114 C.2     1  UNL1       -0.0897
     17 C          -0.1217    2.2790   -2.1225 C.2     1  UNL1       -0.1026
     18 H           2.3609   -0.0109    3.4567 H       1  UNL1        0.0230
     19 H           3.3934    1.4371    3.3826 H       1  UNL1        0.0230
     20 H           1.9586    1.4201    4.4359 H       1  UNL1        0.0230
     21 H           1.9300    1.2846    1.3867 H       1  UNL1        0.0266
     22 H           1.5278    2.7155    2.3659 H       1  UNL1        0.0266
     23 H          -0.6076    2.7877    3.6621 H       1  UNL1        0.0233
     24 H          -1.5323    1.2854    3.8989 H       1  UNL1        0.0233
     25 H           0.0907    1.4530    4.6103 H       1  UNL1        0.0233
     26 H          -4.0589    1.2152    1.4056 H       1  UNL1        0.1591
     27 H          -2.0286    4.6492    1.2802 H       1  UNL1        0.1591
     28 H           0.0247    0.0019   -0.0013 H       1  UNL1        0.0322
     29 H           1.0024    1.4892    0.0012 H       1  UNL1        0.0322
     30 H          -1.7999    1.3519   -1.3342 H       1  UNL1        0.0567
     31 H          -0.6514    2.6287   -2.9963 H       1  UNL1        0.0532
     32 H           0.9269    2.5063   -1.9997 H       1  UNL1        0.0532
@<TRIPOS>BOND
     1     1     2    1
     2     1    18    1
     3     1    19    1
     4     1    20    1
     5     2     3    1
     6     2    21    1
     7     2    22    1
     8     3     4    1
     9     3     5    1
    10     3     6    1
    11     5    23    1
    12     5    24    1
    13     5    25    1
    14     6    13    1
    15     6     7    1
    16     6    15    1
    17     7     8    2
    18     7     9   am
    19     9    10   am
    20     9    26    1
    21    10    11    2
    22    10    12   am
    23    12    13   am
    24    12    27    1
    25    13    14    2
    26    15    16    1
    27    15    28    1
    28    15    29    1
    29    16    17    2
    30    16    30    1
    31    17    31    1
    32    17    32    1
