@<TRIPOS>MOLECULE
ZINC00601316
 52 55 0 0 0
SMALL
GASTEIGER

@<TRIPOS>ATOM
      1 C           4.6397   -2.4417   -4.0941 C.3     1  UNL1       -0.0411
      2 N           3.3074   -2.9043   -3.6830 N.4     1  UNL1        0.2438
      3 C           3.3025   -4.3690   -3.6912 C.3     1  UNL1       -0.0298
      4 C           1.9256   -4.8908   -3.2741 C.3     1  UNL1       -0.0059
      5 C           1.0095   -3.6942   -2.9855 C.3     1  UNL1        0.0108
      6 C           0.9217   -2.8356   -4.2541 C.3     1  UNL1       -0.0059
      7 C           2.3218   -2.3796   -4.6310 C.3     1  UNL1       -0.0298
      8 C           1.6495   -2.8517   -1.8743 C.3     1  UNL1        0.1457
      9 H           1.7437   -3.4518   -0.9693 H       1  UNL1        0.0791
     10 C           3.0351   -2.3952   -2.3367 C.3     1  UNL1        0.0079
     11 O           0.8198   -1.6911   -1.6045 O.3     1  UNL1       -0.4532
     12 C           0.8379   -1.2068   -0.3528 C.2     1  UNL1        0.3490
     13 O           1.5245   -1.7351    0.4895 O.2     1  UNL1       -0.2468
     14 C           0.0021   -0.0041    0.0020 C.3     1  UNL1        0.2134
     15 C           0.6131    0.7009    1.1856 C.ar    1  UNL1       -0.0008
     16 C           0.8168    0.0155    2.3686 C.ar    1  UNL1       -0.0550
     17 C           1.3813    0.6610    3.4529 C.ar    1  UNL1       -0.0614
     18 C           1.7337    1.9943    3.3570 C.ar    1  UNL1       -0.0617
     19 C           1.5251    2.6810    2.1755 C.ar    1  UNL1       -0.0614
     20 C           0.9646    2.0344    1.0899 C.ar    1  UNL1       -0.0550
     21 C          -1.3957   -0.4483    0.3486 C.ar    1  UNL1       -0.0008
     22 C          -1.5893   -1.5487    1.1624 C.ar    1  UNL1       -0.0550
     23 C          -2.8714   -1.9535    1.4839 C.ar    1  UNL1       -0.0614
     24 C          -3.9599   -1.2634    0.9840 C.ar    1  UNL1       -0.0617
     25 C          -3.7662   -0.1661    0.1659 C.ar    1  UNL1       -0.0614
     26 C          -2.4841    0.2413   -0.1520 C.ar    1  UNL1       -0.0550
     27 O          -0.0445    0.8891   -1.1125 O.3     1  UNL1       -0.3698
     28 H           4.8587   -2.8093   -5.0966 H       1  UNL1        0.0778
     29 H           4.6621   -1.3519   -4.0938 H       1  UNL1        0.0778
     30 H           5.3870   -2.8206   -3.3969 H       1  UNL1        0.0778
     31 H           4.0551   -4.7372   -2.9940 H       1  UNL1        0.0815
     32 H           3.5349   -4.7242   -4.6951 H       1  UNL1        0.0815
     33 H           2.0229   -5.5012   -2.3763 H       1  UNL1        0.0321
     34 H           1.5007   -5.4903   -4.0791 H       1  UNL1        0.0321
     35 H           0.0229   -4.0397   -2.6768 H       1  UNL1        0.0342
     36 H           0.4934   -3.4247   -5.0651 H       1  UNL1        0.0321
     37 H           0.2953   -1.9642   -4.0628 H       1  UNL1        0.0321
     38 H           2.3626   -1.2904   -4.6295 H       1  UNL1        0.0815
     39 H           2.5509   -2.7470   -5.6314 H       1  UNL1        0.0815
     40 H           3.0720   -1.3059   -2.3476 H       1  UNL1        0.0852
     41 H           3.7895   -2.7741   -1.6473 H       1  UNL1        0.0852
     42 H           0.5381   -1.0251    2.4448 H       1  UNL1        0.0621
     43 H           1.5446    0.1244    4.3758 H       1  UNL1        0.0618
     44 H           2.1723    2.4993    4.2049 H       1  UNL1        0.0618
     45 H           1.8004    3.7226    2.1006 H       1  UNL1        0.0618
     46 H           0.8017    2.5709    0.1669 H       1  UNL1        0.0621
     47 H          -0.7390   -2.0902    1.5499 H       1  UNL1        0.0621
     48 H          -3.0227   -2.8106    2.1233 H       1  UNL1        0.0618
     49 H          -4.9616   -1.5813    1.2330 H       1  UNL1        0.0618
     50 H          -4.6166    0.3731   -0.2246 H       1  UNL1        0.0618
     51 H          -2.3328    1.0986   -0.7912 H       1  UNL1        0.0621
     52 H           0.8219    1.2159   -1.3911 H       1  UNL1        0.2117
@<TRIPOS>UNITY_ATOM_ATTR
2 1
charge 1
@<TRIPOS>BOND
     1     1     2    1
     2     1    28    1
     3     1    29    1
     4     1    30    1
     5     2     7    1
     6     2    10    1
     7     2     3    1
     8     3     4    1
     9     3    31    1
    10     3    32    1
    11     4     5    1
    12     4    33    1
    13     4    34    1
    14     5     6    1
    15     5     8    1
    16     5    35    1
    17     6     7    1
    18     6    36    1
    19     6    37    1
    20     7    38    1
    21     7    39    1
    22     8     9    1
    23     8    10    1
    24     8    11    1
    25    10    40    1
    26    10    41    1
    27    11    12    1
    28    12    13    2
    29    12    14    1
    30    14    15    1
    31    14    21    1
    32    14    27    1
    33    15    20   ar
    34    15    16   ar
    35    16    17   ar
    36    16    42    1
    37    17    18   ar
    38    17    43    1
    39    18    19   ar
    40    18    44    1
    41    19    20   ar
    42    19    45    1
    43    20    46    1
    44    21    26   ar
    45    21    22   ar
    46    22    23   ar
    47    22    47    1
    48    23    24   ar
    49    23    48    1
    50    24    25   ar
    51    24    49    1
    52    25    26   ar
    53    25    50    1
    54    26    51    1
    55    27    52    1
