@<TRIPOS>MOLECULE
ZINC15848267
 57 60 0 0 0
SMALL
GASTEIGER

@<TRIPOS>ATOM
      1 C           5.0491    2.6065   -4.4261 C.3     1  UNL1       -0.0594
      2 C           5.1414    2.2127   -2.9514 C.3     1  UNL1       -0.0071
      3 H           6.1318    1.8137   -2.7332 H       1  UNL1        0.0330
      4 C           4.8538    3.4464   -2.0503 C.3     1  UNL1       -0.0437
      5 C           3.3964    3.2309   -1.6306 C.3     1  UNL1       -0.0289
      6 H           2.7671    3.4463   -2.5223 H       1  UNL1        0.0310
      7 C           2.8530    4.0401   -0.4991 C.3     1  UNL1       -0.0284
      8 H           2.7070    5.0789   -0.8817 H       1  UNL1        0.0308
      9 C           3.7603    4.1501    0.7232 C.3     1  UNL1       -0.0143
     10 C           3.3234    5.4178    1.4698 C.3     1  UNL1        0.1235
     11 H           3.7672    5.4261    2.4611 H       1  UNL1        0.0699
     12 C           1.8193    5.4388    1.6013 C.2     1  UNL1       -0.0226
     13 C           1.3040    6.4891    2.2615 C.2     1  UNL1       -0.0122
     14 C          -0.1621    6.6203    2.4000 C.2     1  UNL1        0.1788
     15 O          -0.6564    7.3879    3.2205 O.2     1  UNL1       -0.2879
     16 C          -1.0096    5.8207    1.4881 C.2     1  UNL1       -0.0180
     17 C          -0.4802    4.7670    0.8607 C.2     1  UNL1       -0.0701
     18 C           0.9404    4.3461    1.0989 C.3     1  UNL1        0.0158
     19 C           1.4749    3.5442   -0.0608 C.3     1  UNL1        0.0009
     20 H           0.7965    3.7931   -0.9093 H       1  UNL1        0.0340
     21 C           1.3833    2.0400    0.0958 C.3     1  UNL1        0.0600
     22 H           1.9349    1.6789    0.9540 H       1  UNL1        0.0596
     23 C           1.9157    1.3085   -1.1578 C.3     1  UNL1       -0.0178
     24 C           3.3548    1.7125   -1.3680 C.3     1  UNL1        0.0094
     25 C           4.0578    1.1550   -2.6141 C.3     1  UNL1        0.1340
     26 C           3.1061    0.9913   -3.7630 C.2     1  UNL1        0.1904
     27 O           2.1544    1.7271   -3.8682 O.2     1  UNL1       -0.2919
     28 C           3.3383   -0.0913   -4.7853 C.3     1  UNL1        0.1052
     29 O           2.3054   -0.0444   -5.7717 O.3     1  UNL1       -0.3874
     30 O           4.6766   -0.0947   -2.2970 O.3     1  UNL1       -0.3802
     31 C           4.2055    1.3037   -0.1615 C.3     1  UNL1       -0.0562
     32 O           0.0050    1.6572    0.2314 O.3     1  UNL1       -0.3914
     33 C           0.8398    3.4015    2.3003 C.3     1  UNL1       -0.0519
     34 F           3.7336    6.5438    0.7526 F       1  UNL1       -0.2407
     35 H           4.0638    3.0261   -4.6292 H       1  UNL1        0.0233
     36 H           5.8140    3.3493   -4.6523 H       1  UNL1        0.0233
     37 H           5.2037    1.7247   -5.0479 H       1  UNL1        0.0233
     38 H           4.9495    4.3681   -2.6300 H       1  UNL1        0.0272
     39 H           5.5216    3.4703   -1.1943 H       1  UNL1        0.0272
     40 H           3.6309    3.2967    1.3872 H       1  UNL1        0.0299
     41 H           4.8030    4.2450    0.4259 H       1  UNL1        0.0299
     42 H           1.9702    7.2428    2.6973 H       1  UNL1        0.0656
     43 H          -2.0593    6.0895    1.3292 H       1  UNL1        0.0653
     44 H          -1.0935    4.1957    0.1565 H       1  UNL1        0.0582
     45 H           1.8421    0.2317   -0.9994 H       1  UNL1        0.0297
     46 H           1.2957    1.5996   -2.0067 H       1  UNL1        0.0297
     47 H           4.2255    0.0498   -5.2246 H       1  UNL1        0.0637
     48 H           3.3270   -1.0640   -4.2934 H       1  UNL1        0.0637
     49 H           2.3912   -0.7149   -6.4632 H       1  UNL1        0.2100
     50 H           5.1400   -0.5040   -3.0406 H       1  UNL1        0.2108
     51 H           3.7691    1.7175    0.7477 H       1  UNL1        0.0236
     52 H           4.2338    0.2165   -0.0886 H       1  UNL1        0.0236
     53 H           5.2187    1.6861   -0.2849 H       1  UNL1        0.0236
     54 H          -0.1304    0.7054    0.3359 H       1  UNL1        0.2098
     55 H           1.8275    3.0041    2.5338 H       1  UNL1        0.0241
     56 H           0.4553    3.9484    3.1613 H       1  UNL1        0.0241
     57 H           0.1648    2.5798    2.0609 H       1  UNL1        0.0241
@<TRIPOS>BOND
     1     1     2    1
     2     1    35    1
     3     1    36    1
     4     1    37    1
     5     2     3    1
     6     2    25    1
     7     2     4    1
     8     4     5    1
     9     4    38    1
    10     4    39    1
    11     5     6    1
    12     5    24    1
    13     5     7    1
    14     7     8    1
    15     7    19    1
    16     7     9    1
    17     9    10    1
    18     9    40    1
    19     9    41    1
    20    10    11    1
    21    10    12    1
    22    10    34    1
    23    12    18    1
    24    12    13    2
    25    13    14    1
    26    13    42    1
    27    14    15    2
    28    14    16    1
    29    16    17    2
    30    16    43    1
    31    17    18    1
    32    17    44    1
    33    18    19    1
    34    18    33    1
    35    19    20    1
    36    19    21    1
    37    21    22    1
    38    21    23    1
    39    21    32    1
    40    23    24    1
    41    23    45    1
    42    23    46    1
    43    24    25    1
    44    24    31    1
    45    25    26    1
    46    25    30    1
    47    26    27    2
    48    26    28    1
    49    28    29    1
    50    28    47    1
    51    28    48    1
    52    29    49    1
    53    30    50    1
    54    31    51    1
    55    31    52    1
    56    31    53    1
    57    32    54    1
    58    33    55    1
    59    33    56    1
    60    33    57    1
