@<TRIPOS>MOLECULE
ZINC03831267
 41 43 0 0 0
SMALL
GASTEIGER

@<TRIPOS>ATOM
      1 C           4.7935  -10.0786   -2.4027 C.3     1  UNL1        0.0790
      2 O           3.9965   -8.9020   -2.2525 O.3     1  UNL1       -0.4913
      3 C           4.6548   -7.7157   -2.1854 C.ar    1  UNL1        0.1647
      4 C           6.0428   -7.6647   -2.2606 C.ar    1  UNL1        0.0018
      5 C           6.6756   -6.4397   -2.1882 C.ar    1  UNL1        0.0316
      6 N           5.9823   -5.3253   -2.0546 N.ar    1  UNL1       -0.2551
      7 C           4.6651   -5.3290   -1.9741 C.ar    1  UNL1        0.0990
      8 C           3.9555   -6.5158   -2.0387 C.ar    1  UNL1        0.1837
      9 O           2.5977   -6.5133   -1.9600 O.3     1  UNL1       -0.4898
     10 C           1.8769   -6.3994   -3.1887 C.3     1  UNL1        0.0790
     11 C           3.9247   -4.0260   -1.8164 C.3     1  UNL1        0.0767
     12 S           3.7248   -3.6538   -0.0523 S.O     1  UNL1        0.0955
     13 O           2.8107   -4.5756    0.5256 O.2     1  UNL1       -0.2488
     14 C           2.8535   -2.1223   -0.0358 C.ar    1  UNL1        0.1981
     15 N           3.4376   -0.8926   -0.0351 N.ar    1  UNL1       -0.3309
     16 H           4.4194   -0.7027   -0.0434 H       1  UNL1        0.1679
     17 C           2.4231    0.0437   -0.0208 C.ar    1  UNL1        0.0704
     18 C           2.3899    1.4314   -0.0130 C.ar    1  UNL1        0.0057
     19 C           1.1720    2.0865    0.0021 C.ar    1  UNL1        0.1289
     20 C          -0.0164    1.3612    0.0095 C.ar    1  UNL1       -0.0176
     21 C           0.0021   -0.0041    0.0020 C.ar    1  UNL1       -0.0308
     22 C           1.2222   -0.6854   -0.0133 C.ar    1  UNL1        0.0903
     23 N           1.5585   -2.0018   -0.0231 N.ar    1  UNL1       -0.2200
     24 O           1.1351    3.4455    0.0093 O.3     1  UNL1       -0.4342
     25 C          -0.1553    4.0593    0.0244 C.3     1  UNL1        0.3893
     26 F          -0.8704    3.6698   -1.1132 F       1  UNL1       -0.1663
     27 F          -0.8490    3.6583    1.1712 F       1  UNL1       -0.1663
     28 H           4.1451  -10.9539   -2.4428 H       1  UNL1        0.0660
     29 H           5.3704  -10.0113   -3.3250 H       1  UNL1        0.0660
     30 H           5.4727  -10.1680   -1.5549 H       1  UNL1        0.0660
     31 H           6.6180   -8.5716   -2.3745 H       1  UNL1        0.0670
     32 H           7.7531   -6.3929   -2.2460 H       1  UNL1        0.0831
     33 H           2.1435   -5.4642   -3.6810 H       1  UNL1        0.0660
     34 H           2.1311   -7.2372   -3.8380 H       1  UNL1        0.0660
     35 H           0.8063   -6.4101   -2.9841 H       1  UNL1        0.0660
     36 H           2.9435   -4.1067   -2.2842 H       1  UNL1        0.0471
     37 H           4.4905   -3.2264   -2.2946 H       1  UNL1        0.0471
     38 H           3.3103    1.9965   -0.0184 H       1  UNL1        0.0675
     39 H          -0.9618    1.8834    0.0168 H       1  UNL1        0.0655
     40 H          -0.9256   -0.5571    0.0075 H       1  UNL1        0.0641
     41 H          -0.0419    5.1434    0.0288 H       1  UNL1        0.1520
@<TRIPOS>BOND
     1     1     2    1
     2     1    28    1
     3     1    29    1
     4     1    30    1
     5     2     3    1
     6     3     8   ar
     7     3     4   ar
     8     4     5   ar
     9     4    31    1
    10     5     6   ar
    11     5    32    1
    12     6     7   ar
    13     7     8   ar
    14     7    11    1
    15     8     9    1
    16     9    10    1
    17    10    33    1
    18    10    34    1
    19    10    35    1
    20    11    12    1
    21    11    36    1
    22    11    37    1
    23    12    13    2
    24    12    14    1
    25    14    23   ar
    26    14    15   ar
    27    15    16    1
    28    15    17   ar
    29    17    22   ar
    30    17    18   ar
    31    18    19   ar
    32    18    38    1
    33    19    20   ar
    34    19    24    1
    35    20    21   ar
    36    20    39    1
    37    21    22   ar
    38    21    40    1
    39    22    23   ar
    40    24    25    1
    41    25    26    1
    42    25    27    1
    43    25    41    1
