@<TRIPOS>MOLECULE
ZINC03830503
 47 49 0 0 0
SMALL
GASTEIGER

@<TRIPOS>ATOM
      1 C          -2.1346   -4.3837    0.2210 C.3     1  UNL1        0.0332
      2 C          -2.2560   -2.8817    0.2135 C.2     1  UNL1        0.3043
      3 O          -3.3476   -2.3639    0.1942 O.2     1  UNL1       -0.2512
      4 O          -1.1516   -2.1190    0.2282 O.3     1  UNL1       -0.4603
      5 C          -1.3395   -0.6844    0.1060 C.3     1  UNL1        0.1164
      6 C           0.0041   -0.0074    0.0191 C.2     1  UNL1        0.0004
      7 CA         -0.0175    1.3167    0.0087 C.2     1  UNL1        0.0631
      8 N           1.1814    2.0460   -0.0162 N.am    1  UNL1       -0.2533
      9 C           2.5224    1.5345   -0.4502 C.3     1  UNL1        0.1041
     10 H           2.7139    1.5021   -1.5228 H       1  UNL1        0.0644
     11 CA          3.0844    2.7474    0.2837 C.3     1  UNL1        0.1285
     12 HA          3.7250    3.3756   -0.3351 H       1  UNL1        0.0622
     13 C           1.6506    3.2411    0.3797 C.2     1  UNL1        0.2438
     14 O           1.1351    4.2942    0.6901 O.2     1  UNL1       -0.2731
     15 N           3.6839    2.4247    1.5809 N.am    1  UNL1       -0.2968
     16 C           4.6318    3.2276    2.1036 C.2     1  UNL1        0.2665
     17 O           4.9886    4.2172    1.5000 O.2     1  UNL1       -0.2692
     18 CA          5.2485    2.8957    3.4380 C.3     1  UNL1        0.0789
     19 HA          4.4763    2.5280    4.1137 H       1  UNL1        0.1002
     20 C           6.3022    1.8341    3.2543 C.ar    1  UNL1        0.0091
     21 C           7.5585    2.1797    2.7926 C.ar    1  UNL1       -0.0528
     22 C           8.5265    1.2066    2.6286 C.ar    1  UNL1       -0.0613
     23 C           8.2350   -0.1137    2.9165 C.ar    1  UNL1       -0.0617
     24 C           6.9771   -0.4601    3.3732 C.ar    1  UNL1       -0.0613
     25 C           6.0107    0.5138    3.5421 C.ar    1  UNL1       -0.0528
     26 S           2.7293   -0.0628    0.4069 S.3     1  UNL1       -0.1310
     27 C           1.1875   -0.9171   -0.0447 C.3     1  UNL1        0.0219
     28 C          -1.3082    2.0286    0.0173 C.2     1  UNL1        0.0860
     29 O          -1.3335    3.2394    0.1156 O.co2   1  UNL1       -0.5433
     30 H          -1.6873   -4.7074    1.1608 H       1  UNL1        0.0342
     31 H          -3.1242   -4.8288    0.1173 H       1  UNL1        0.0342
     32 H          -1.5045   -4.7015   -0.6097 H       1  UNL1        0.0342
     33 H          -1.8778   -0.3128    0.9779 H       1  UNL1        0.0746
     34 H          -1.9140   -0.4686   -0.7948 H       1  UNL1        0.0746
     35 H           3.3985    1.6332    2.0637 H       1  UNL1        0.1497
     36 H           7.7848    3.2106    2.5634 H       1  UNL1        0.0622
     37 H           9.5092    1.4772    2.2715 H       1  UNL1        0.0618
     38 H           8.9900   -0.8746    2.7842 H       1  UNL1        0.0618
     39 H           6.7493   -1.4916    3.5978 H       1  UNL1        0.0618
     40 H           5.0279    0.2431    3.8986 H       1  UNL1        0.0622
     41 H1          6.5830    4.4628    3.3987 H       1  UNL1        0.2005
     42 H2          5.1667    4.8065    4.1998 H       1  UNL1        0.2005
     43 H           1.0308   -1.7509    0.6397 H       1  UNL1        0.0424
     44 H           1.2815   -1.3058   -1.0587 H       1  UNL1        0.0424
     45 N           5.8729    4.0927    4.0284 N.4     1  UNL1        0.2307
     46 H3          6.3151    3.8381    4.9194 H       1  UNL1        0.2005
     47 OXT        -2.4602    1.3365   -0.0838 O.co2   1  UNL1       -0.5433
@<TRIPOS>UNITY_ATOM_ATTR
45 1
charge 1
47 1
charge -1
@<TRIPOS>BOND
     1     1     2    1
     2     1    30    1
     3     1    31    1
     4     1    32    1
     5     2     3    2
     6     2     4    1
     7     4     5    1
     8     5     6    1
     9     5    33    1
    10     5    34    1
    11     6    27    1
    12     6     7    2
    13     7     8    1
    14     7    28    1
    15     8    13   am
    16     8     9    1
    17     9    10    1
    18     9    11    1
    19     9    26    1
    20    11    12    1
    21    11    13    1
    22    11    15    1
    23    13    14    2
    24    15    16   am
    25    15    35    1
    26    16    17    2
    27    16    18    1
    28    18    19    1
    29    18    20    1
    30    18    45    1
    31    20    25   ar
    32    20    21   ar
    33    21    22   ar
    34    21    36    1
    35    22    23   ar
    36    22    37    1
    37    23    24   ar
    38    23    38    1
    39    24    25   ar
    40    24    39    1
    41    25    40    1
    42    26    27    1
    43    27    43    1
    44    27    44    1
    45    28    29   ar
    46    28    47   ar
    47    41    45    1
    48    42    45    1
    49    45    46    1
