@<TRIPOS>MOLECULE
ZINC03831255
 45 49 0 0 0
SMALL
GASTEIGER

@<TRIPOS>ATOM
      1 C          -1.1827   -0.0859    2.1113 C.3     1  UNL1       -0.0427
      2 C           1.2054   -0.1158    2.0896 C.3     1  UNL1       -0.0307
      3 C           2.4414   -0.6834    1.3810 C.3     1  UNL1        0.0039
      4 C           2.4354   -0.1958   -0.0661 C.3     1  UNL1        0.0820
      5 C           2.4025    1.3121   -0.0952 C.ar    1  UNL1        0.0146
      6 C           1.2813    2.1102   -0.0906 C.ar    1  UNL1       -0.0343
      7 C           1.5135    3.4747   -0.0780 C.ar    1  UNL1       -0.0544
      8 C           2.8066    3.9624   -0.1747 C.ar    1  UNL1       -0.0160
      9 C           3.9257    3.1409   -0.2891 C.ar    1  UNL1        0.1618
     10 C           3.7044    1.7588   -0.2675 C.ar    1  UNL1        0.1671
     11 O           4.5418    0.7110   -0.4234 O.3     1  UNL1       -0.4764
     12 C           3.7600   -0.4729   -0.7647 C.3     1  UNL1        0.1704
     13 H           4.1341   -1.3407   -0.4378 H       1  UNL1        0.0824
     14 C           3.6185   -0.4994   -2.2578 C.2     1  UNL1        0.1745
     15 O           4.5868   -0.2428   -2.9322 O.2     1  UNL1       -0.2934
     16 C           2.3316   -0.8299   -2.9522 C.3     1  UNL1        0.0124
     17 C           1.1596   -0.1768   -2.2170 C.3     1  UNL1       -0.0109
     18 C           1.1654   -0.6527   -0.7654 C.3     1  UNL1        0.1225
     19 C          -0.0217   -0.0448   -0.0123 C.3     1  UNL1        0.0133
     20 H          -0.9363   -0.4195   -0.4720 H       1  UNL1        0.0883
     21 C          -0.0699    1.4737   -0.0480 C.3     1  UNL1        0.0187
     22 O           1.0809   -2.0785   -0.7212 O.3     1  UNL1       -0.3819
     23 O           5.1770    3.6582   -0.4155 O.3     1  UNL1       -0.4914
     24 C           5.2921    5.0825   -0.4263 C.3     1  UNL1        0.0790
     25 H          -2.0766   -0.3751    1.5586 H       1  UNL1        0.0778
     26 H          -1.1956   -0.5557    3.0947 H       1  UNL1        0.0778
     27 H          -1.1616    0.9978    2.2266 H       1  UNL1        0.0778
     28 H           1.1687   -0.4930    3.1116 H       1  UNL1        0.0815
     29 H           1.2656    0.9724    2.1070 H       1  UNL1        0.0815
     30 H           2.4071   -1.7726    1.4008 H       1  UNL1        0.0328
     31 H           3.3457   -0.3362    1.8808 H       1  UNL1        0.0328
     32 H           0.6833    4.1619   -0.0085 H       1  UNL1        0.0622
     33 H           2.9542    5.0322   -0.1610 H       1  UNL1        0.0655
     34 H           2.3621   -0.4876   -3.8913 H       1  UNL1        0.0344
     35 H           2.1941   -1.9111   -2.9642 H       1  UNL1        0.0344
     36 H           0.2226   -0.4661   -2.6929 H       1  UNL1        0.0299
     37 H           1.2678    0.9074   -2.2467 H       1  UNL1        0.0299
     38 H          -0.6304    1.7847   -0.9296 H       1  UNL1        0.0369
     39 H          -0.5949    1.8274    0.8392 H       1  UNL1        0.0369
     40 H           0.2768   -2.4375   -1.1207 H       1  UNL1        0.2105
     41 H           4.7221    5.4868   -1.2628 H       1  UNL1        0.0660
     42 H           4.9016    5.4857    0.5081 H       1  UNL1        0.0660
     43 H           6.3404    5.3615   -0.5324 H       1  UNL1        0.0660
     44 N           0.0035   -0.5580    1.3836 N.4     1  UNL1        0.2375
     45 H          -0.0057   -1.5844    1.3567 H       1  UNL1        0.2034
@<TRIPOS>UNITY_ATOM_ATTR
44 1
charge 1
@<TRIPOS>BOND
     1     1    25    1
     2     1    26    1
     3     1    27    1
     4     1    44    1
     5     2     3    1
     6     2    28    1
     7     2    29    1
     8     2    44    1
     9     3     4    1
    10     3    30    1
    11     3    31    1
    12     4    12    1
    13     4    18    1
    14     4     5    1
    15     5    10   ar
    16     5     6   ar
    17     6    21    1
    18     6     7   ar
    19     7     8   ar
    20     7    32    1
    21     8     9   ar
    22     8    33    1
    23     9    10   ar
    24     9    23    1
    25    10    11    1
    26    11    12    1
    27    12    13    1
    28    12    14    1
    29    14    15    2
    30    14    16    1
    31    16    17    1
    32    16    34    1
    33    16    35    1
    34    17    18    1
    35    17    36    1
    36    17    37    1
    37    18    19    1
    38    18    22    1
    39    19    20    1
    40    19    21    1
    41    19    44    1
    42    21    38    1
    43    21    39    1
    44    22    40    1
    45    23    24    1
    46    24    41    1
    47    24    42    1
    48    24    43    1
    49    44    45    1
