@<TRIPOS>MOLECULE
ZINC08551669
 51 54 0 0 0
SMALL
GASTEIGER

@<TRIPOS>ATOM
      1 C          -3.8178    5.6729   -2.1031 C.3     1  UNL1       -0.0569
      2 C          -4.5473    4.7404   -3.0721 C.3     1  UNL1       -0.0030
      3 C          -5.3618    3.7166   -2.3033 C.3     1  UNL1       -0.0447
      4 C          -4.4018    3.0163   -1.3304 C.3     1  UNL1       -0.0486
      5 C          -3.2280    2.3635   -2.0559 C.3     1  UNL1       -0.0285
      6 H          -3.6093    1.5436   -2.6645 H       1  UNL1        0.0312
      7 C          -2.4935    3.3637   -2.9659 C.3     1  UNL1       -0.0306
      8 H          -2.0201    4.1456   -2.3721 H       1  UNL1        0.0310
      9 C          -3.5169    3.9500   -3.9217 C.3     1  UNL1       -0.0298
     10 H          -4.0047    3.1554   -4.4863 H       1  UNL1        0.0310
     11 C          -2.9971    5.0348   -4.8713 C.3     1  UNL1       -0.0470
     12 C          -4.2883    5.8066   -5.2576 C.3     1  UNL1       -0.0261
     13 C          -5.3028    5.5614   -4.1131 C.3     1  UNL1        0.0609
     14 H          -6.1622    5.0025   -4.4836 H       1  UNL1        0.0599
     15 O          -5.7268    6.8056   -3.5524 O.3     1  UNL1       -0.3912
     16 C          -1.4427    2.5870   -3.7695 C.3     1  UNL1       -0.0311
     17 C          -0.5634    1.8104   -2.8346 C.2     1  UNL1       -0.0839
     18 C          -0.9156    1.4751   -1.6342 C.2     1  UNL1       -0.0648
     19 C          -2.2520    1.8057   -1.0279 C.3     1  UNL1       -0.0078
     20 C          -2.0525    2.7812    0.1291 C.3     1  UNL1       -0.0413
     21 C          -0.6698    2.5816    0.7487 C.3     1  UNL1       -0.0258
     22 C          -0.2498    1.1129    0.7017 C.3     1  UNL1        0.0590
     23 H          -1.0595    0.4920    1.0848 H       1  UNL1        0.0596
     24 C           0.0582    0.7143   -0.7489 C.3     1  UNL1       -0.0051
     25 O           0.9165    0.9231    1.5053 O.3     1  UNL1       -0.3915
     26 C          -2.8469    0.5191   -0.4521 C.3     1  UNL1       -0.0556
     27 H          -3.2034    6.3746   -2.6672 H       1  UNL1        0.0236
     28 H          -4.5478    6.2242   -1.5104 H       1  UNL1        0.0236
     29 H          -3.1825    5.0843   -1.4413 H       1  UNL1        0.0236
     30 H          -6.1561    4.2148   -1.7476 H       1  UNL1        0.0271
     31 H          -5.7905    2.9891   -2.9926 H       1  UNL1        0.0271
     32 H          -4.9497    2.2503   -0.7817 H       1  UNL1        0.0268
     33 H          -4.0169    3.7503   -0.6224 H       1  UNL1        0.0268
     34 H          -2.2941    5.6914   -4.3588 H       1  UNL1        0.0269
     35 H          -2.5369    4.5877   -5.7524 H       1  UNL1        0.0269
     36 H          -4.0750    6.8718   -5.3466 H       1  UNL1        0.0290
     37 H          -4.6850    5.4250   -6.1984 H       1  UNL1        0.0290
     38 H          -6.1785    7.3862   -4.1800 H       1  UNL1        0.2098
     39 H          -1.9430    1.8997   -4.4517 H       1  UNL1        0.0310
     40 H          -0.8342    3.2867   -4.3425 H       1  UNL1        0.0310
     41 H           0.4161    1.5153   -3.1810 H       1  UNL1        0.0572
     42 H          -2.1393    3.8030   -0.2402 H       1  UNL1        0.0274
     43 H          -2.8168    2.6056    0.8861 H       1  UNL1        0.0274
     44 H           0.0579    3.1784    0.1988 H       1  UNL1        0.0290
     45 H          -0.6921    2.9127    1.7869 H       1  UNL1        0.0290
     46 H          -0.0820   -0.3589   -0.8778 H       1  UNL1        0.0335
     47 H           1.0826    0.9886   -1.0009 H       1  UNL1        0.0335
     48 H           1.2385    0.0115    1.5221 H       1  UNL1        0.2098
     49 H          -2.0743   -0.0286    0.0876 H       1  UNL1        0.0238
     50 H          -3.6596    0.7681    0.2302 H       1  UNL1        0.0238
     51 H          -3.2305   -0.0989   -1.2640 H       1  UNL1        0.0238
@<TRIPOS>BOND
     1     1     2    1
     2     1    27    1
     3     1    28    1
     4     1    29    1
     5     2     9    1
     6     2    13    1
     7     2     3    1
     8     3     4    1
     9     3    30    1
    10     3    31    1
    11     4     5    1
    12     4    32    1
    13     4    33    1
    14     5     6    1
    15     5    19    1
    16     5     7    1
    17     7     8    1
    18     7     9    1
    19     7    16    1
    20     9    10    1
    21     9    11    1
    22    11    12    1
    23    11    34    1
    24    11    35    1
    25    12    13    1
    26    12    36    1
    27    12    37    1
    28    13    14    1
    29    13    15    1
    30    15    38    1
    31    16    17    1
    32    16    39    1
    33    16    40    1
    34    17    18    2
    35    17    41    1
    36    18    24    1
    37    18    19    1
    38    19    20    1
    39    19    26    1
    40    20    21    1
    41    20    42    1
    42    20    43    1
    43    21    22    1
    44    21    44    1
    45    21    45    1
    46    22    23    1
    47    22    24    1
    48    22    25    1
    49    24    46    1
    50    24    47    1
    51    25    48    1
    52    26    49    1
    53    26    50    1
    54    26    51    1
