@<TRIPOS>MOLECULE
ZINC03830690
 46 49 0 0 0
SMALL
GASTEIGER

@<TRIPOS>ATOM
      1 C          -5.9752    4.8651   -0.4602 C.3     1  UNL1       -0.0029
      2 C          -4.4690    4.8171   -0.4733 C.ar    1  UNL1        0.1469
      3 C          -3.6841    3.6917   -0.4654 C.ar    1  UNL1        0.1061
      4 C          -2.3142    4.2466   -0.4863 C.ar    1  UNL1        0.1285
      5 N          -2.4726    5.5459   -0.4969 N.ar    1  UNL1       -0.0772
      6 O          -3.6373    5.8610   -0.4957 O.2     1  UNL1       -0.3586
      7 C          -1.0367    3.4941   -0.4883 C.ar    1  UNL1        0.0410
      8 C          -0.1170    3.6782   -1.5208 C.ar    1  UNL1        0.0517
      9 C           1.0695    2.9709   -1.5190 C.ar    1  UNL1       -0.0427
     10 C           1.3509    2.0891   -0.4913 C.ar    1  UNL1       -0.0590
     11 C           0.4453    1.9056    0.5378 C.ar    1  UNL1       -0.0427
     12 C          -0.7469    2.6033    0.5453 C.ar    1  UNL1        0.0517
     13 CL         -1.8823    2.3716    1.8379 Cl      1  UNL1       -0.0828
     14 CL         -0.4655    4.7894   -2.8082 Cl      1  UNL1       -0.0828
     15 C          -4.1029    2.2800   -0.4426 C.2     1  UNL1        0.2502
     16 O          -4.3680    1.7413    0.6151 O.2     1  UNL1       -0.2700
     17 N          -4.1924    1.5850   -1.5939 N.am    1  UNL1       -0.2976
     18 CA         -4.6090    0.1806   -1.5712 C.3     1  UNL1        0.1279
     19 HA         -5.2225   -0.0599   -0.7029 H       1  UNL1        0.0622
     20 C          -5.2165   -0.2905   -2.8936 C.3     1  UNL1        0.1003
     21 H          -6.1823   -0.7934   -2.8452 H       1  UNL1        0.0640
     22 N          -4.0002   -1.1277   -2.9745 N.am    1  UNL1       -0.2761
     23 C          -3.4670   -0.7828   -1.7789 C.2     1  UNL1        0.2401
     24 O          -2.4870   -1.1103   -1.1437 O.2     1  UNL1       -0.2734
     25 CA         -3.1965   -0.9430   -4.1850 C.3     1  UNL1        0.0807
     26 HA         -3.6142   -1.5446   -4.9923 H       1  UNL1        0.0576
     27 C          -3.2037    0.5592   -4.6014 C.3     1  UNL1        0.0366
     28 S          -4.9868    0.9163   -4.2659 S.3     1  UNL1       -0.1275
     29 C          -2.8617    0.7359   -6.0822 C.3     1  UNL1       -0.0486
     30 C          -2.2832    1.3972   -3.7118 C.3     1  UNL1       -0.0486
     31 C          -1.7798   -1.3815   -3.9171 C.2     1  UNL1        0.0635
     32 O          -1.2012   -0.9868   -2.9326 O.co2   1  UNL1       -0.5478
     33 H          -6.3289    4.8905    0.5705 H       1  UNL1        0.0309
     34 H          -6.3147    5.7593   -0.9830 H       1  UNL1        0.0309
     35 H          -6.3713    3.9804   -0.9586 H       1  UNL1        0.0309
     36 H           1.7810    3.1100   -2.3196 H       1  UNL1        0.0632
     37 H           2.2820    1.5418   -0.4922 H       1  UNL1        0.0618
     38 H           0.6709    1.2157    1.3375 H       1  UNL1        0.0632
     39 H          -3.9809    2.0146   -2.4375 H       1  UNL1        0.1499
     40 H          -3.0445    1.7694   -6.3765 H       1  UNL1        0.0244
     41 H          -1.8117    0.4923   -6.2442 H       1  UNL1        0.0244
     42 H          -3.4853    0.0719   -6.6809 H       1  UNL1        0.0244
     43 H          -2.5051    1.1924   -2.6645 H       1  UNL1        0.0244
     44 H          -1.2445    1.1407   -3.9201 H       1  UNL1        0.0244
     45 H          -2.4443    2.4555   -3.9172 H       1  UNL1        0.0244
     46 OXT        -1.1608   -2.2106   -4.7722 O.co2   1  UNL1       -0.5478
@<TRIPOS>UNITY_ATOM_ATTR
46 1
charge -1
@<TRIPOS>BOND
     1     1     2    1
     2     1    33    1
     3     1    34    1
     4     1    35    1
     5     2     6   ar
     6     2     3   ar
     7     3     4   ar
     8     3    15    1
     9     4     5   ar
    10     4     7    1
    11     5     6   ar
    12     7    12   ar
    13     7     8   ar
    14     8     9   ar
    15     8    14    1
    16     9    10   ar
    17     9    36    1
    18    10    11   ar
    19    10    37    1
    20    11    12   ar
    21    11    38    1
    22    12    13    1
    23    15    16    2
    24    15    17   am
    25    17    18    1
    26    17    39    1
    27    18    19    1
    28    18    23    1
    29    18    20    1
    30    20    21    1
    31    20    28    1
    32    20    22    1
    33    22    23   am
    34    22    25    1
    35    23    24    2
    36    25    26    1
    37    25    27    1
    38    25    31    1
    39    27    28    1
    40    27    29    1
    41    27    30    1
    42    29    40    1
    43    29    41    1
    44    29    42    1
    45    30    43    1
    46    30    44    1
    47    30    45    1
    48    31    32   ar
    49    31    46   ar
