@<TRIPOS>MOLECULE
ZINC11616274
 58 61 0 0 0
SMALL
GASTEIGER

@<TRIPOS>ATOM
      1 C          -1.0285    0.2923    3.7708 C.3     1  UNL1       -0.0653
      2 C          -0.2207    0.0840    2.4882 C.3     1  UNL1       -0.0554
      3 C          -0.9854    0.6750    1.3022 C.3     1  UNL1       -0.0432
      4 C          -0.1776    0.4667    0.0196 C.3     1  UNL1        0.0449
      5 C          -0.9308    1.0489   -1.1486 C.2     1  UNL1        0.3074
      6 O          -2.0037    1.5763   -0.9734 O.2     1  UNL1       -0.2508
      7 O          -0.4099    0.9815   -2.3839 O.3     1  UNL1       -0.4608
      8 C          -1.1893    1.5620   -3.4594 C.3     1  UNL1        0.1087
      9 H          -2.2532    1.4690   -3.2691 H       1  UNL1        0.0739
     10 C          -0.7938    3.0457   -3.6772 C.3     1  UNL1       -0.0149
     11 C           0.0517    3.0910   -4.9826 C.3     1  UNL1       -0.0460
     12 C           0.4698    1.6269   -5.1509 C.3     1  UNL1       -0.0288
     13 H           1.2080    1.4139   -4.3428 H       1  UNL1        0.0310
     14 C          -0.8321    0.8823   -4.7950 C.3     1  UNL1        0.0081
     15 C          -0.5556   -0.6011   -4.7174 C.3     1  UNL1       -0.0434
     16 C           0.0088   -1.0713   -6.0643 C.3     1  UNL1       -0.0453
     17 C           1.2930   -0.3288   -6.4230 C.3     1  UNL1       -0.0125
     18 H           2.0479   -0.5652   -5.6637 H       1  UNL1        0.0352
     19 C           1.0879    1.1882   -6.4369 C.3     1  UNL1       -0.0305
     20 H           2.0986    1.6460   -6.4961 H       1  UNL1        0.0310
     21 C           0.3436    1.5927   -7.7021 C.3     1  UNL1       -0.0454
     22 C           1.3020    1.3960   -8.8845 C.3     1  UNL1       -0.0270
     23 C           1.8075   -0.0246   -8.8874 C.ar    1  UNL1       -0.0405
     24 C           1.7968   -0.8123   -7.7581 C.ar    1  UNL1       -0.0406
     25 C           2.2720   -2.1171   -7.8261 C.ar    1  UNL1       -0.0546
     26 C           2.7529   -2.6305   -9.0114 C.ar    1  UNL1       -0.0199
     27 C           2.7639   -1.8370  -10.1492 C.ar    1  UNL1        0.1171
     28 C           2.2916   -0.5370  -10.0824 C.ar    1  UNL1       -0.0167
     29 O           3.2347   -2.3332  -11.3233 O.3     1  UNL1       -0.5068
     30 C          -1.9719    1.1676   -5.7716 C.3     1  UNL1       -0.0559
     31 H          -1.1834    1.3589    3.9334 H       1  UNL1        0.0230
     32 H          -1.9940   -0.2048    3.6769 H       1  UNL1        0.0230
     33 H          -0.4837   -0.1287    4.6158 H       1  UNL1        0.0230
     34 H          -0.0659   -0.9826    2.3256 H       1  UNL1        0.0263
     35 H           0.7448    0.5811    2.5822 H       1  UNL1        0.0263
     36 H          -1.1403    1.7416    1.4648 H       1  UNL1        0.0270
     37 H          -1.9509    0.1779    1.2082 H       1  UNL1        0.0270
     38 H          -0.0227   -0.5999   -0.1430 H       1  UNL1        0.0377
     39 H           0.7879    0.9638    0.1136 H       1  UNL1        0.0377
     40 H          -1.6853    3.6598   -3.7861 H       1  UNL1        0.0301
     41 H          -0.1945    3.3972   -2.8370 H       1  UNL1        0.0301
     42 H          -0.5374    3.4450   -5.8221 H       1  UNL1        0.0269
     43 H           0.9316    3.7235   -4.8405 H       1  UNL1        0.0269
     44 H           0.1710   -0.8071   -3.9276 H       1  UNL1        0.0272
     45 H          -1.4803   -1.1419   -4.4994 H       1  UNL1        0.0272
     46 H           0.2345   -2.1397   -5.9924 H       1  UNL1        0.0271
     47 H          -0.7254   -0.9315   -6.8516 H       1  UNL1        0.0271
     48 H           0.0411    2.6357   -7.6530 H       1  UNL1        0.0271
     49 H          -0.5217    0.9513   -7.8663 H       1  UNL1        0.0271
     50 H           2.1409    2.0795   -8.7818 H       1  UNL1        0.0313
     51 H           0.7708    1.5946   -9.8117 H       1  UNL1        0.0313
     52 H           2.2656   -2.7337   -6.9394 H       1  UNL1        0.0622
     53 H           3.1203   -3.6454   -9.0545 H       1  UNL1        0.0654
     54 H           2.2991    0.0807  -10.9684 H       1  UNL1        0.0657
     55 H           4.1819   -2.1928  -11.4581 H       1  UNL1        0.2921
     56 H          -2.0016    2.2343   -5.9938 H       1  UNL1        0.0236
     57 H          -1.8090    0.6089   -6.6932 H       1  UNL1        0.0236
     58 H          -2.9182    0.8631   -5.3245 H       1  UNL1        0.0236
@<TRIPOS>BOND
     1     1     2    1
     2     1    31    1
     3     1    32    1
     4     1    33    1
     5     2     3    1
     6     2    34    1
     7     2    35    1
     8     3     4    1
     9     3    36    1
    10     3    37    1
    11     4     5    1
    12     4    38    1
    13     4    39    1
    14     5     6    2
    15     5     7    1
    16     7     8    1
    17     8     9    1
    18     8    14    1
    19     8    10    1
    20    10    11    1
    21    10    40    1
    22    10    41    1
    23    11    12    1
    24    11    42    1
    25    11    43    1
    26    12    13    1
    27    12    19    1
    28    12    14    1
    29    14    15    1
    30    14    30    1
    31    15    16    1
    32    15    44    1
    33    15    45    1
    34    16    17    1
    35    16    46    1
    36    16    47    1
    37    17    18    1
    38    17    24    1
    39    17    19    1
    40    19    20    1
    41    19    21    1
    42    21    22    1
    43    21    48    1
    44    21    49    1
    45    22    23    1
    46    22    50    1
    47    22    51    1
    48    23    28   ar
    49    23    24   ar
    50    24    25   ar
    51    25    26   ar
    52    25    52    1
    53    26    27   ar
    54    26    53    1
    55    27    28   ar
    56    27    29    1
    57    28    54    1
    58    29    55    1
    59    30    56    1
    60    30    57    1
    61    30    58    1
