@<TRIPOS>MOLECULE
ZINC00896409
 26 25 0 0 0
SMALL
GASTEIGER

@<TRIPOS>ATOM
      1 C           1.2125    3.1918    0.0956 C.3     1  UNL1       -0.0080
      2 C           2.3671    4.1947    0.1395 C.3     1  UNL1        0.0841
      3 O           3.2409    3.9639   -0.9674 O.3     1  UNL1       -0.3898
      4 C          -0.0678    4.8737   -1.0853 C.3     1  UNL1       -0.0080
      5 C          -1.0895    5.1020    0.0305 C.3     1  UNL1        0.0841
      6 O          -0.4521    4.9437    1.2996 O.3     1  UNL1       -0.3898
      7 C           1.0591    3.1220   -2.3199 C.3     1  UNL1       -0.0080
      8 C           1.3109    1.6133   -2.3593 C.3     1  UNL1        0.0841
      9 O           0.0605    0.9225   -2.3956 O.3     1  UNL1       -0.3898
     10 H           1.6123    2.1804    0.0216 H       1  UNL1        0.0837
     11 H           0.6182    3.2819    1.0048 H       1  UNL1        0.0837
     12 H           2.9200    4.0716    1.0707 H       1  UNL1        0.0610
     13 H           1.9702    5.2083    0.0838 H       1  UNL1        0.0610
     14 H           3.9975    4.5650   -1.0033 H       1  UNL1        0.2096
     15 H           0.7941    5.5220   -0.9270 H       1  UNL1        0.0837
     16 H          -0.5238    5.1041   -2.0482 H       1  UNL1        0.0837
     17 H          -1.4951    6.1106   -0.0491 H       1  UNL1        0.0610
     18 H          -1.8978    4.3769   -0.0631 H       1  UNL1        0.0610
     19 H          -1.0416    5.0746    2.0549 H       1  UNL1        0.2096
     20 H           0.4418    3.4096   -3.1709 H       1  UNL1        0.0837
     21 H           2.0112    3.6506   -2.3664 H       1  UNL1        0.0837
     22 H           1.8894    1.3647   -3.2490 H       1  UNL1        0.0610
     23 H           1.8655    1.3142   -1.4699 H       1  UNL1        0.0610
     24 H           0.1438   -0.0405   -2.4218 H       1  UNL1        0.2096
     25 N           0.3426    3.4539   -1.0703 N.4     1  UNL1        0.2401
     26 H          -0.4956    2.8651   -1.0001 H       1  UNL1        0.2036
@<TRIPOS>UNITY_ATOM_ATTR
25 1
charge 1
@<TRIPOS>BOND
     1     1     2    1
     2     1    10    1
     3     1    11    1
     4     1    25    1
     5     2     3    1
     6     2    12    1
     7     2    13    1
     8     3    14    1
     9     4     5    1
    10     4    15    1
    11     4    16    1
    12     4    25    1
    13     5     6    1
    14     5    17    1
    15     5    18    1
    16     6    19    1
    17     7     8    1
    18     7    20    1
    19     7    21    1
    20     7    25    1
    21     8     9    1
    22     8    22    1
    23     8    23    1
    24     9    24    1
    25    25    26    1
