@<TRIPOS>MOLECULE
ZINC03830453
 44 46 0 0 0
SMALL
GASTEIGER

@<TRIPOS>ATOM
      1 C           2.2556   -0.3618   -0.0607 C.3     1  UNL1        0.0369
      2 O           0.8944   -0.7964   -0.0409 O.3     1  UNL1       -0.3786
      3 C          -0.0566    0.2701   -0.0561 C.3     1  UNL1        0.0712
      4 C          -1.4483   -0.2992   -0.1568 C.2     1  UNL1       -0.0112
      5 CA         -2.4301    0.5845   -0.2618 C.2     1  UNL1        0.0620
      6 N          -3.7555    0.1592   -0.4131 N.am    1  UNL1       -0.2533
      7 C          -4.3075   -1.1945   -0.1250 C.3     1  UNL1        0.1041
      8 H          -4.5512   -1.3772    0.9216 H       1  UNL1        0.0644
      9 CA         -5.5012   -0.8642   -1.0031 C.3     1  UNL1        0.1286
     10 HA         -6.4682   -1.0015   -0.5193 H       1  UNL1        0.0622
     11 C          -4.9370    0.5327   -0.8885 C.2     1  UNL1        0.2438
     12 O          -5.4042    1.6226   -1.1435 O.2     1  UNL1       -0.2731
     13 N          -5.4378   -1.4345   -2.3511 N.am    1  UNL1       -0.2963
     14 C          -6.5733   -1.6625   -3.0403 C.2     1  UNL1        0.2684
     15 O          -7.6419   -1.3038   -2.5867 O.2     1  UNL1       -0.2683
     16 C          -6.5186   -2.3509   -4.3515 C.2     1  UNL1        0.1897
     17 N          -7.5970   -2.4630   -5.0739 N.2     1  UNL1       -0.0779
     18 O          -8.7956   -1.8336   -4.6591 O.2     1  UNL1       -0.3964
     19 C          -9.8974   -2.0400   -5.5454 C.3     1  UNL1        0.1072
     20 C          -5.2399   -2.9105   -4.8400 C.ar    1  UNL1        0.1067
     21 C          -5.1531   -3.4467   -6.0970 C.ar    1  UNL1        0.0067
     22 S          -3.4358   -3.9427   -6.1303 S.2     1  UNL1       -0.0604
     23 C          -3.0112   -3.4000   -4.4813 C.ar    1  UNL1        0.1562
     24 N          -4.1594   -2.9042   -4.0606 N.ar    1  UNL1       -0.2233
     25 N          -1.7974   -3.4790   -3.8196 N.pl3   1  UNL1       -0.3375
     26 S          -3.1056   -2.3808   -0.8173 S.3     1  UNL1       -0.1311
     27 C          -1.5482   -1.7901   -0.1319 C.3     1  UNL1        0.0208
     28 C          -2.1245    2.0260   -0.2194 C.2     1  UNL1        0.0860
     29 O          -3.0277    2.8388   -0.2234 O.co2   1  UNL1       -0.5433
     30 H           2.4383    0.2193   -0.9646 H       1  UNL1        0.0524
     31 H           2.4522    0.2569    0.8149 H       1  UNL1        0.0524
     32 H           2.9144   -1.2300   -0.0474 H       1  UNL1        0.0524
     33 H           0.0331    0.8500    0.8625 H       1  UNL1        0.0607
     34 H           0.1349    0.9155   -0.9133 H       1  UNL1        0.0607
     35 H          -4.5786   -1.6479   -2.7475 H       1  UNL1        0.1499
     36 H         -10.7770   -1.5264   -5.1574 H       1  UNL1        0.0687
     37 H          -9.6504   -1.6441   -6.5304 H       1  UNL1        0.0687
     38 H         -10.1051   -3.1071   -5.6244 H       1  UNL1        0.0687
     39 H          -5.9125   -3.5424   -6.8589 H       1  UNL1        0.0716
     40 H          -1.7150   -3.1385   -2.9151 H       1  UNL1        0.1442
     41 H          -1.0294   -3.8748   -4.2606 H       1  UNL1        0.1442
     42 H          -0.7207   -2.2106   -0.7033 H       1  UNL1        0.0424
     43 H          -1.4752   -2.1332    0.9001 H       1  UNL1        0.0424
     44 OXT        -0.8435    2.4423   -0.1762 O.co2   1  UNL1       -0.5433
@<TRIPOS>UNITY_ATOM_ATTR
44 1
charge -1
@<TRIPOS>BOND
     1     1     2    1
     2     1    30    1
     3     1    31    1
     4     1    32    1
     5     2     3    1
     6     3     4    1
     7     3    33    1
     8     3    34    1
     9     4    27    1
    10     4     5    2
    11     5     6    1
    12     5    28    1
    13     6    11   am
    14     6     7    1
    15     7     8    1
    16     7     9    1
    17     7    26    1
    18     9    10    1
    19     9    11    1
    20     9    13    1
    21    11    12    2
    22    13    14   am
    23    13    35    1
    24    14    15    2
    25    14    16    1
    26    16    17    2
    27    16    20    1
    28    17    18    1
    29    18    19    1
    30    19    36    1
    31    19    37    1
    32    19    38    1
    33    20    24   ar
    34    20    21   ar
    35    21    22   ar
    36    21    39    1
    37    22    23   ar
    38    23    24   ar
    39    23    25    1
    40    25    40    1
    41    25    41    1
    42    26    27    1
    43    27    42    1
    44    27    43    1
    45    28    29   ar
    46    28    44   ar
