@<TRIPOS>MOLECULE
ZINC00000240
 38 40 0 0 0
SMALL
GASTEIGER

@<TRIPOS>ATOM
      1 C           2.3654    7.6135   -1.0313 C.ar    1  UNL1       -0.0610
      2 C           2.3800    7.4996   -2.4108 C.ar    1  UNL1       -0.0590
      3 C           2.3958    6.2530   -3.0077 C.ar    1  UNL1       -0.0258
      4 C           2.3967    5.1105   -2.2283 C.ar    1  UNL1        0.1325
      5 C           2.3820    5.2202   -0.8356 C.ar    1  UNL1        0.0358
      6 C           2.3612    6.4826   -0.2419 C.ar    1  UNL1       -0.0498
      7 C           2.3824    4.0024    0.0063 C.2     1  UNL1        0.0807
      8 N           3.4110    3.7932    0.7499 N.2     1  UNL1       -0.2427
      9 C           3.5140    2.6167    1.6122 C.3     1  UNL1        0.2248
     10 H           4.4321    2.6700    2.1973 H       1  UNL1        0.0952
     11 C           3.5357    1.3827    0.7520 C.2     1  UNL1        0.2712
     12 O           4.5215    0.6762    0.7574 O.2     1  UNL1       -0.2702
     13 N           2.5011    1.0459   -0.0146 N.am    1  UNL1       -0.2648
     14 C           1.2969    1.7309   -0.0753 C.ar    1  UNL1        0.0457
     15 C           1.2065    3.1215   -0.0708 C.ar    1  UNL1        0.0235
     16 C          -0.0565    3.7283   -0.1404 C.ar    1  UNL1       -0.0324
     17 C          -1.1979    2.9614   -0.2101 C.ar    1  UNL1        0.0417
     18 C          -1.1044    1.5788   -0.2177 C.ar    1  UNL1       -0.0416
     19 C           0.1290    0.9693   -0.1462 C.ar    1  UNL1       -0.0383
     20 CL         -2.7538    3.7265   -0.2953 Cl      1  UNL1       -0.0835
     21 C           2.6459   -0.1412   -0.8608 C.3     1  UNL1        0.0431
     22 C           3.2177    0.2678   -2.2197 C.3     1  UNL1        0.0603
     23 O           4.5434    0.7724   -2.0463 O.3     1  UNL1       -0.3934
     24 O           2.3885    2.5676    2.4912 O.3     1  UNL1       -0.3636
     25 F           2.4112    3.8922   -2.8118 F       1  UNL1       -0.2048
     26 H           2.3527    8.5908   -0.5719 H       1  UNL1        0.0618
     27 H           2.3786    8.3890   -3.0235 H       1  UNL1        0.0618
     28 H           2.4071    6.1710   -4.0845 H       1  UNL1        0.0646
     29 H           2.3453    6.5741    0.8341 H       1  UNL1        0.0625
     30 H          -0.1341    4.8055   -0.1396 H       1  UNL1        0.0639
     31 H          -2.0001    0.9781   -0.2757 H       1  UNL1        0.0633
     32 H           0.1934   -0.1088   -0.1495 H       1  UNL1        0.0637
     33 H           3.3212   -0.8495   -0.3807 H       1  UNL1        0.0491
     34 H           1.6710   -0.6077   -1.0023 H       1  UNL1        0.0491
     35 H           3.2426   -0.5996   -2.8794 H       1  UNL1        0.0573
     36 H           2.5892    1.0416   -2.6604 H       1  UNL1        0.0573
     37 H           4.9687    1.0515   -2.8686 H       1  UNL1        0.2095
     38 H           2.3124    3.3339    3.0761 H       1  UNL1        0.2125
@<TRIPOS>BOND
     1     1     6   ar
     2     1     2   ar
     3     1    26    1
     4     2     3   ar
     5     2    27    1
     6     3     4   ar
     7     3    28    1
     8     4     5   ar
     9     4    25    1
    10     5     6   ar
    11     5     7    1
    12     6    29    1
    13     7    15    1
    14     7     8    2
    15     8     9    1
    16     9    10    1
    17     9    11    1
    18     9    24    1
    19    11    12    2
    20    11    13   am
    21    13    14    1
    22    13    21    1
    23    14    19   ar
    24    14    15   ar
    25    15    16   ar
    26    16    17   ar
    27    16    30    1
    28    17    18   ar
    29    17    20    1
    30    18    19   ar
    31    18    31    1
    32    19    32    1
    33    21    22    1
    34    21    33    1
    35    21    34    1
    36    22    23    1
    37    22    35    1
    38    22    36    1
    39    23    37    1
    40    24    38    1
