@<TRIPOS>MOLECULE
ZINC00039908
 28 29 0 0 0
SMALL
GASTEIGER

@<TRIPOS>ATOM
      1 C          -1.8360    1.1701   -3.1956 C.ar    1  UNL1       -0.0056
      2 C          -1.1617    0.7025   -2.1185 C.ar    1  UNL1        0.0151
      3 N          -0.7381    1.5793   -1.1652 N.ar    1  UNL1       -0.2726
      4 C          -0.9779    2.8967   -1.2987 C.ar    1  UNL1        0.3521
      5 O          -0.5874    3.6677   -0.4378 O.2     1  UNL1       -0.2444
      6 N          -1.6349    3.3724   -2.3550 N.ar    1  UNL1       -0.1783
      7 C          -2.0710    2.5561   -3.3054 C.ar    1  UNL1        0.1230
      8 N          -2.7489    3.0589   -4.3917 N.pl3   1  UNL1       -0.3430
      9 C          -0.0127    1.0858    0.0080 C.3     1  UNL1        0.1398
     10 H           0.0021   -0.0041    0.0020 H       1  UNL1        0.0839
     11 C           1.4323    1.6293   -0.0029 C.3     1  UNL1       -0.0048
     12 C           1.6793    1.9387    1.4988 C.3     1  UNL1       -0.0203
     13 C           0.2650    2.3898    1.9427 C.3     1  UNL1        0.0843
     14 H           0.1066    3.4388    1.6926 H       1  UNL1        0.0620
     15 O          -0.6432    1.5567    1.2049 O.3     1  UNL1       -0.3510
     16 C           0.0850    2.1702    3.4461 C.3     1  UNL1        0.0705
     17 O          -1.1780    2.6978    3.8568 O.3     1  UNL1       -0.3925
     18 H          -2.1846    0.4925   -3.9609 H       1  UNL1        0.0666
     19 H          -0.9653   -0.3543   -2.0140 H       1  UNL1        0.0812
     20 H          -3.5754    3.5282   -4.0808 H       1  UNL1        0.1437
     21 H          -3.0665    2.4595   -5.0851 H       1  UNL1        0.1437
     22 H           2.1288    0.8719   -0.3626 H       1  UNL1        0.0309
     23 H           1.5008    2.5370   -0.6024 H       1  UNL1        0.0309
     24 H           1.9937    1.0449    2.0376 H       1  UNL1        0.0292
     25 H           2.4044    2.7436    1.6200 H       1  UNL1        0.0292
     26 H           0.1211    1.1028    3.6643 H       1  UNL1        0.0583
     27 H           0.8839    2.6786    3.9858 H       1  UNL1        0.0583
     28 H          -1.3598    2.5932    4.8007 H       1  UNL1        0.2095
@<TRIPOS>BOND
     1     1     7   ar
     2     1     2   ar
     3     1    18    1
     4     2     3   ar
     5     2    19    1
     6     3     4   ar
     7     3     9    1
     8     4     5    2
     9     4     6   ar
    10     6     7   ar
    11     7     8    1
    12     8    20    1
    13     8    21    1
    14     9    10    1
    15     9    15    1
    16     9    11    1
    17    11    12    1
    18    11    22    1
    19    11    23    1
    20    12    13    1
    21    12    24    1
    22    12    25    1
    23    13    14    1
    24    13    15    1
    25    13    16    1
    26    16    17    1
    27    16    26    1
    28    16    27    1
    29    17    28    1
