@<TRIPOS>MOLECULE
ZINC03830673
 71 74 0 0 0
SMALL
GASTEIGER

@<TRIPOS>ATOM
      1 C          -5.8206    9.1882   -3.2305 C.3     1  UNL1       -0.0653
      2 C          -5.2384    7.8249   -3.6094 C.3     1  UNL1       -0.0554
      3 C          -4.4452    7.2630   -2.4279 C.3     1  UNL1       -0.0432
      4 C          -3.8630    5.8998   -2.8068 C.3     1  UNL1        0.0449
      5 C          -3.0816    5.3463   -1.6430 C.2     1  UNL1        0.3075
      6 O          -2.9989    5.9774   -0.6160 O.2     1  UNL1       -0.2508
      7 O          -2.4776    4.1521   -1.7475 O.3     1  UNL1       -0.4568
      8 C          -1.7425    3.6815   -0.5871 C.3     1  UNL1        0.1530
      9 C          -1.1371    2.3347   -0.8882 C.2     1  UNL1        0.2024
     10 O          -1.3075    1.8242   -1.9692 O.2     1  UNL1       -0.2907
     11 C          -0.3208    1.6266    0.1574 C.3     1  UNL1        0.1351
     12 C          -0.2732    0.1046   -0.1292 C.3     1  UNL1       -0.0071
     13 H          -0.7747   -0.1136   -1.0707 H       1  UNL1        0.0330
     14 C           1.2354   -0.2676   -0.2381 C.3     1  UNL1       -0.0436
     15 C           1.8743    0.8413    0.6134 C.3     1  UNL1       -0.0263
     16 H           1.5302    0.6805    1.6617 H       1  UNL1        0.0311
     17 C           1.1514    2.0903    0.0678 C.3     1  UNL1        0.0096
     18 C           1.4939    3.2893    0.9080 C.3     1  UNL1       -0.0151
     19 C           2.9995    3.4129    1.1747 C.3     1  UNL1        0.0910
     20 H           3.1510    3.3069    2.2650 H       1  UNL1        0.0626
     21 C           3.8608    2.3933    0.4664 C.3     1  UNL1        0.1526
     22 C           3.3553    0.9650    0.6349 C.3     1  UNL1        0.0003
     23 H           3.7094    0.6150    1.6314 H       1  UNL1        0.0336
     24 C           4.0758    0.1008   -0.4056 C.3     1  UNL1       -0.0432
     25 C           5.5130   -0.0812    0.0827 C.3     1  UNL1       -0.0301
     26 C           6.0357    1.1399    0.7904 C.2     1  UNL1       -0.0532
     27 C           7.2505    1.0189    1.3630 C.2     1  UNL1       -0.0148
     28 C           7.7511    2.1252    2.2070 C.2     1  UNL1        0.1787
     29 O           8.9461    2.2641    2.4420 O.2     1  UNL1       -0.2879
     30 C           6.7458    3.0420    2.7953 C.2     1  UNL1       -0.0180
     31 C           5.5645    3.1755    2.1636 C.2     1  UNL1       -0.0674
     32 C           5.3185    2.4412    0.8910 C.3     1  UNL1        0.0443
     33 C           5.9708    3.3105   -0.1946 C.3     1  UNL1       -0.0493
     34 F           3.9208    2.7062   -0.8938 F       1  UNL1       -0.2377
     35 O           3.4181    4.7398    0.8157 O.3     1  UNL1       -0.3886
     36 C           1.4115    2.3459   -1.4155 C.3     1  UNL1       -0.0562
     37 C          -0.9276   -0.6728    1.0119 C.3     1  UNL1       -0.0594
     38 O          -0.8359    1.8761    1.4614 O.3     1  UNL1       -0.3801
     39 H          -6.3858    9.5885   -4.0722 H       1  UNL1        0.0230
     40 H          -6.4808    9.0750   -2.3706 H       1  UNL1        0.0230
     41 H          -5.0101    9.8722   -2.9789 H       1  UNL1        0.0230
     42 H          -4.5783    7.9381   -4.4693 H       1  UNL1        0.0263
     43 H          -6.0489    7.1409   -3.8610 H       1  UNL1        0.0263
     44 H          -5.1053    7.1498   -1.5680 H       1  UNL1        0.0270
     45 H          -3.6347    7.9470   -2.1762 H       1  UNL1        0.0270
     46 H          -3.2028    6.0129   -3.6667 H       1  UNL1        0.0377
     47 H          -4.6735    5.2158   -3.0584 H       1  UNL1        0.0377
     48 H          -2.3649    3.6006    0.1914 H       1  UNL1        0.0779
     49 H          -0.9503    4.3905   -0.3467 H       1  UNL1        0.0779
     50 H           1.4136   -1.2438    0.2181 H       1  UNL1        0.0272
     51 H           1.5786   -0.2536   -1.2625 H       1  UNL1        0.0272
     52 H           0.9663    3.2319    1.8726 H       1  UNL1        0.0297
     53 H           1.1415    4.2033    0.4051 H       1  UNL1        0.0297
     54 H           3.5874   -0.8725   -0.4811 H       1  UNL1        0.0272
     55 H           4.0697    0.5936   -1.3763 H       1  UNL1        0.0272
     56 H           6.1580   -0.2994   -0.7686 H       1  UNL1        0.0310
     57 H           5.5473   -0.9240    0.7759 H       1  UNL1        0.0310
     58 H           7.8248    0.0969    1.2488 H       1  UNL1        0.0656
     59 H           6.9658    3.6333    3.6824 H       1  UNL1        0.0653
     60 H           4.8084    3.8301    2.5971 H       1  UNL1        0.0583
     61 H           5.5048    4.2958   -0.1997 H       1  UNL1        0.0242
     62 H           7.0358    3.4133    0.0136 H       1  UNL1        0.0242
     63 H           5.8347    2.8391   -1.1679 H       1  UNL1        0.0242
     64 H           2.9042    5.4419    1.2376 H       1  UNL1        0.2099
     65 H           0.7189    3.1044   -1.7803 H       1  UNL1        0.0236
     66 H           2.4356    2.6941   -1.5501 H       1  UNL1        0.0236
     67 H           1.2655    1.4217   -1.9745 H       1  UNL1        0.0236
     68 H          -1.9677   -0.3629    1.1130 H       1  UNL1        0.0233
     69 H          -0.8859   -1.7402    0.7952 H       1  UNL1        0.0233
     70 H          -0.3959   -0.4698    1.9416 H       1  UNL1        0.0233
     71 H          -1.7408    1.5619    1.5936 H       1  UNL1        0.2108
@<TRIPOS>BOND
     1     1     2    1
     2     1    39    1
     3     1    40    1
     4     1    41    1
     5     2     3    1
     6     2    42    1
     7     2    43    1
     8     3     4    1
     9     3    44    1
    10     3    45    1
    11     4     5    1
    12     4    46    1
    13     4    47    1
    14     5     6    2
    15     5     7    1
    16     7     8    1
    17     8     9    1
    18     8    48    1
    19     8    49    1
    20     9    10    2
    21     9    11    1
    22    11    17    1
    23    11    12    1
    24    11    38    1
    25    12    13    1
    26    12    14    1
    27    12    37    1
    28    14    15    1
    29    14    50    1
    30    14    51    1
    31    15    16    1
    32    15    22    1
    33    15    17    1
    34    17    18    1
    35    17    36    1
    36    18    19    1
    37    18    52    1
    38    18    53    1
    39    19    20    1
    40    19    21    1
    41    19    35    1
    42    21    32    1
    43    21    22    1
    44    21    34    1
    45    22    23    1
    46    22    24    1
    47    24    25    1
    48    24    54    1
    49    24    55    1
    50    25    26    1
    51    25    56    1
    52    25    57    1
    53    26    32    1
    54    26    27    2
    55    27    28    1
    56    27    58    1
    57    28    29    2
    58    28    30    1
    59    30    31    2
    60    30    59    1
    61    31    32    1
    62    31    60    1
    63    32    33    1
    64    33    61    1
    65    33    62    1
    66    33    63    1
    67    35    64    1
    68    36    65    1
    69    36    66    1
    70    36    67    1
    71    37    68    1
    72    37    69    1
    73    37    70    1
    74    38    71    1
