@<TRIPOS>MOLECULE
ZINC03830445
 57 60 0 0 0
SMALL
GASTEIGER

@<TRIPOS>ATOM
      1 C           1.8921    1.0293   -1.4680 C.3     1  UNL1       -0.0433
      2 C          -0.4297    0.9166   -0.7903 C.3     1  UNL1       -0.0433
      3 C           1.3252    0.7635    0.8709 C.3     1  UNL1       -0.0122
      4 C           0.4391    1.3195    1.9874 C.3     1  UNL1        0.0858
      5 N           0.8414    0.7328    3.2681 N.ar    1  UNL1       -0.2151
      6 C           0.3672   -0.3999    3.8385 C.ar    1  UNL1        0.2098
      7 N           1.0052   -0.5551    4.9784 N.ar    1  UNL1       -0.1015
      8 N           1.8369    0.4059    5.1627 N.ar    1  UNL1       -0.0222
      9 N           1.7981    1.2285    4.1711 N.ar    1  UNL1       -0.0430
     10 S          -0.8684   -1.4674    3.1766 S.3     1  UNL1       -0.0801
     11 C          -0.9415   -2.7140    4.4868 C.3     1  UNL1        0.0251
     12 C          -1.9634   -3.7616    4.1270 C.2     1  UNL1       -0.0264
     13 CA         -1.5387   -4.7378    3.3376 C.2     1  UNL1        0.0607
     14 N          -2.3980   -5.7902    2.9920 N.am    1  UNL1       -0.2533
     15 C          -3.8829   -5.8115    3.0853 C.3     1  UNL1        0.1041
     16 H          -4.3996   -5.3221    2.2597 H       1  UNL1        0.0644
     17 CA         -3.8465   -7.3269    3.0136 C.3     1  UNL1        0.1283
     18 HA         -4.4352   -7.7530    2.2013 H       1  UNL1        0.0622
     19 C          -2.3970   -7.0782    2.6691 C.2     1  UNL1        0.2438
     20 O          -1.5270   -7.8078    2.2424 O.2     1  UNL1       -0.2731
     21 N          -4.0558   -7.9981    4.2989 N.am    1  UNL1       -0.3014
     22 C          -4.5419   -9.2547    4.3316 C.2     1  UNL1        0.2195
     23 O          -4.8060   -9.8299    3.2970 O.2     1  UNL1       -0.2754
     24 C          -4.7572   -9.9452    5.6537 C.3     1  UNL1        0.0668
     25 C          -5.3035  -11.3292    5.4145 C.ar    1  UNL1        0.0592
     26 C          -4.6819  -12.4175    5.9279 C.ar    1  UNL1        0.0007
     27 S          -5.7493  -13.7214    5.3336 S.2     1  UNL1       -0.0608
     28 C          -6.8836  -12.7166    4.4856 C.ar    1  UNL1        0.1557
     29 N          -6.4016  -11.5081    4.7044 N.ar    1  UNL1       -0.2296
     30 N          -8.0097  -13.0884    3.7681 N.pl3   1  UNL1       -0.3375
     31 S          -4.2887   -5.1112    4.7213 S.3     1  UNL1       -0.1311
     32 C          -3.3291   -3.5653    4.7006 C.3     1  UNL1        0.0195
     33 C          -0.1566   -4.7193    2.8253 C.2     1  UNL1        0.0860
     34 O           0.2777   -5.6756    2.2142 O.co2   1  UNL1       -0.5433
     35 H           1.9564   -0.0526   -1.5841 H       1  UNL1        0.0777
     36 H           1.5692    1.4769   -2.4079 H       1  UNL1        0.0777
     37 H           2.8706    1.4242   -1.1947 H       1  UNL1        0.0777
     38 H          -1.1391    1.2297   -0.0242 H       1  UNL1        0.0777
     39 H          -0.7033    1.3667   -1.7446 H       1  UNL1        0.0777
     40 H          -0.4495   -0.1693   -0.8818 H       1  UNL1        0.0777
     41 H           1.2147   -0.3199    0.8249 H       1  UNL1        0.0832
     42 H           2.3662    1.0142    1.0744 H       1  UNL1        0.0832
     43 H           0.5495    2.4029    2.0334 H       1  UNL1        0.0563
     44 H          -0.6020    1.0688    1.7839 H       1  UNL1        0.0563
     45 H           0.0362   -3.1830    4.5970 H       1  UNL1        0.0427
     46 H          -1.2241   -2.2381    5.4258 H       1  UNL1        0.0427
     47 H          -3.8445   -7.5381    5.1263 H       1  UNL1        0.1495
     48 H          -3.8083  -10.0160    6.1854 H       1  UNL1        0.0422
     49 H          -5.4667   -9.3728    6.2512 H       1  UNL1        0.0422
     50 H          -3.7881  -12.4799    6.5308 H       1  UNL1        0.0712
     51 H          -8.2495  -14.0253    3.6929 H       1  UNL1        0.1442
     52 H          -8.5581  -12.4117    3.3411 H       1  UNL1        0.1442
     53 H          -3.2349   -3.1930    5.7207 H       1  UNL1        0.0423
     54 H          -3.8616   -2.8255    4.1029 H       1  UNL1        0.0423
     55 N           0.9213    1.3803   -0.4101 N.4     1  UNL1        0.2322
     56 H           0.9045    2.4008   -0.2983 H       1  UNL1        0.2028
     57 OXT         0.6254   -3.6418    3.0347 O.co2   1  UNL1       -0.5433
@<TRIPOS>UNITY_ATOM_ATTR
55 1
charge 1
57 1
charge -1
@<TRIPOS>BOND
     1     1    35    1
     2     1    36    1
     3     1    37    1
     4     1    55    1
     5     2    38    1
     6     2    39    1
     7     2    40    1
     8     2    55    1
     9     3     4    1
    10     3    41    1
    11     3    42    1
    12     3    55    1
    13     4     5    1
    14     4    43    1
    15     4    44    1
    16     5     9   ar
    17     5     6   ar
    18     6     7   ar
    19     6    10    1
    20     7     8   ar
    21     8     9   ar
    22    10    11    1
    23    11    12    1
    24    11    45    1
    25    11    46    1
    26    12    32    1
    27    12    13    2
    28    13    14    1
    29    13    33    1
    30    14    19   am
    31    14    15    1
    32    15    16    1
    33    15    17    1
    34    15    31    1
    35    17    18    1
    36    17    19    1
    37    17    21    1
    38    19    20    2
    39    21    22   am
    40    21    47    1
    41    22    23    2
    42    22    24    1
    43    24    25    1
    44    24    48    1
    45    24    49    1
    46    25    29   ar
    47    25    26   ar
    48    26    27   ar
    49    26    50    1
    50    27    28   ar
    51    28    29   ar
    52    28    30    1
    53    30    51    1
    54    30    52    1
    55    31    32    1
    56    32    53    1
    57    32    54    1
    58    33    34   ar
    59    33    57   ar
    60    55    56    1
