@<TRIPOS>MOLECULE
ZINC03830805
 50 53 0 0 0
SMALL
GASTEIGER

@<TRIPOS>ATOM
      1 C          -2.8620    2.3772   -2.1490 C.3     1  UNL1       -0.0558
      2 C          -2.2121    1.2829   -1.2560 C.3     1  UNL1        0.0111
      3 C          -0.7471    1.6254   -1.2125 C.3     1  UNL1       -0.0435
      4 C          -0.0127    1.0820    0.0080 C.3     1  UNL1       -0.0488
      5 C          -0.7350    1.5946    1.2576 C.3     1  UNL1       -0.0314
      6 H          -0.8521    2.6780    1.1914 H       1  UNL1        0.0309
      7 C          -2.1153    0.9390    1.2960 C.3     1  UNL1       -0.0339
      8 H          -2.6284    1.3011    2.2025 H       1  UNL1        0.0307
      9 C          -2.9442    1.3523    0.0863 C.3     1  UNL1       -0.0289
     10 H          -3.3439    2.3786    0.2459 H       1  UNL1        0.0310
     11 C          -4.1194    0.3497   -0.0621 C.3     1  UNL1       -0.0458
     12 C          -3.5792   -0.7485   -0.9987 C.3     1  UNL1       -0.0118
     13 C          -2.5589   -0.0482   -1.9205 C.3     1  UNL1        0.1317
     14 C          -1.3938   -0.9144   -2.1352 C.1     1  UNL1       -0.0704
     15 C          -0.4618   -1.6074   -2.3070 C.1     1  UNL1       -0.1163
     16 O          -3.1850    0.2081   -3.1909 O.3     1  UNL1       -0.3760
     17 C          -1.9969   -0.5777    1.3989 C.3     1  UNL1       -0.0460
     18 C          -1.2497   -0.9647    2.6822 C.3     1  UNL1       -0.0311
     19 C           0.0911   -0.2506    2.6743 C.2     1  UNL1       -0.0677
     20 C           1.1804   -0.9469    2.7975 C.2     1  UNL1       -0.0564
     21 C           2.5440   -0.3125    2.7905 C.3     1  UNL1        0.0736
     22 H           2.9216   -0.2677    1.7699 H       1  UNL1        0.0638
     23 C           2.4214    1.1047    3.3593 C.3     1  UNL1       -0.0227
     24 C           1.4282    1.8863    2.4984 C.3     1  UNL1       -0.0436
     25 C           0.0566    1.2426    2.5157 C.3     1  UNL1       -0.0166
     26 H          -0.4887    1.6493    3.3757 H       1  UNL1        0.0348
     27 O           3.4360   -1.0814    3.5984 O.3     1  UNL1       -0.3878
     28 H          -2.4060    2.3565   -3.1388 H       1  UNL1        0.0236
     29 H          -3.9315    2.1861   -2.2375 H       1  UNL1        0.0236
     30 H          -2.7042    3.3563   -1.6967 H       1  UNL1        0.0236
     31 H          -0.6679    2.7285   -1.1785 H       1  UNL1        0.0272
     32 H          -0.2403    1.3245   -2.1245 H       1  UNL1        0.0272
     33 H           0.0021   -0.0041    0.0020 H       1  UNL1        0.0268
     34 H           1.0159    1.4509    0.0002 H       1  UNL1        0.0268
     35 H          -4.4100   -0.0609    0.9046 H       1  UNL1        0.0269
     36 H          -4.9856    0.8409   -0.5177 H       1  UNL1        0.0269
     37 H          -3.0981   -1.5426   -0.4348 H       1  UNL1        0.0303
     38 H          -4.3935   -1.1589   -1.6002 H       1  UNL1        0.0303
     39 H           0.3717   -2.2271   -2.4606 H       1  UNL1        0.1229
     40 H          -3.4350   -0.5911   -3.6745 H       1  UNL1        0.2114
     41 H          -2.9929   -1.0248    1.4367 H       1  UNL1        0.0271
     42 H          -1.4575   -0.9766    0.5440 H       1  UNL1        0.0271
     43 H          -1.1018   -2.0414    2.7097 H       1  UNL1        0.0310
     44 H          -1.8291   -0.6450    3.5483 H       1  UNL1        0.0310
     45 H           1.1100   -2.0160    2.9138 H       1  UNL1        0.0597
     46 H           3.3955    1.5943    3.3327 H       1  UNL1        0.0293
     47 H           2.0592    1.0589    4.3858 H       1  UNL1        0.0293
     48 H           1.8068    1.9344    1.4796 H       1  UNL1        0.0272
     49 H           1.3466    2.9042    2.8902 H       1  UNL1        0.0272
     50 H           3.5586   -1.9906    3.2930 H       1  UNL1        0.2102
@<TRIPOS>BOND
     1     1     2    1
     2     1    28    1
     3     1    29    1
     4     1    30    1
     5     2     9    1
     6     2    13    1
     7     2     3    1
     8     3     4    1
     9     3    31    1
    10     3    32    1
    11     4     5    1
    12     4    33    1
    13     4    34    1
    14     5     6    1
    15     5    25    1
    16     5     7    1
    17     7     8    1
    18     7     9    1
    19     7    17    1
    20     9    10    1
    21     9    11    1
    22    11    12    1
    23    11    35    1
    24    11    36    1
    25    12    13    1
    26    12    37    1
    27    12    38    1
    28    13    14    1
    29    13    16    1
    30    14    15    3
    31    15    39    1
    32    16    40    1
    33    17    18    1
    34    17    41    1
    35    17    42    1
    36    18    19    1
    37    18    43    1
    38    18    44    1
    39    19    25    1
    40    19    20    2
    41    20    21    1
    42    20    45    1
    43    21    22    1
    44    21    23    1
    45    21    27    1
    46    23    24    1
    47    23    46    1
    48    23    47    1
    49    24    25    1
    50    24    48    1
    51    24    49    1
    52    25    26    1
    53    27    50    1
