@<TRIPOS>MOLECULE
ZINC03831360
 89 93 0 0 0
SMALL
GASTEIGER

@<TRIPOS>ATOM
      1 C           2.2855    3.1501   -2.9144 C.3     1  UNL1       -0.0562
      2 C           2.9451    2.2540   -1.8626 C.3     1  UNL1        0.0092
      3 C           2.0675    1.0807   -1.5209 C.3     1  UNL1       -0.0178
      4 C           1.1173    1.4072   -0.3534 C.3     1  UNL1        0.0600
      5 H           1.5551    1.0224    0.5727 H       1  UNL1        0.0596
      6 C           0.8905    2.9034   -0.2341 C.3     1  UNL1        0.0007
      7 H           0.5541    3.2914   -1.2092 H       1  UNL1        0.0340
      8 C           2.2005    3.6005    0.1596 C.3     1  UNL1       -0.0311
      9 H           2.4160    3.3846    1.2247 H       1  UNL1        0.0308
     10 C           3.3607    3.0306   -0.5993 C.3     1  UNL1       -0.0292
     11 H           3.9035    2.3354    0.0789 H       1  UNL1        0.0310
     12 C           4.3943    4.0192   -1.1575 C.3     1  UNL1       -0.0463
     13 C           5.1786    3.1605   -2.1885 C.3     1  UNL1       -0.0161
     14 C           4.3362    1.8813   -2.4241 C.3     1  UNL1        0.1326
     15 C           4.2293    1.5800   -3.8923 C.2     1  UNL1        0.2022
     16 O           4.4610    2.4433   -4.7043 O.2     1  UNL1       -0.2907
     17 C           3.8331    0.2004   -4.3515 C.3     1  UNL1        0.1530
     18 O           3.8013    0.1639   -5.8027 O.3     1  UNL1       -0.4568
     19 C           3.4637   -1.0021   -6.3756 C.2     1  UNL1        0.3075
     20 O           3.2033   -1.9604   -5.6874 O.2     1  UNL1       -0.2508
     21 C           3.4093   -1.1159   -7.8773 C.3     1  UNL1        0.0452
     22 C           3.0020   -2.5383   -8.2666 C.3     1  UNL1       -0.0390
     23 C           2.9468   -2.6538   -9.7913 C.3     1  UNL1       -0.0272
     24 C           2.5456   -4.0549  -10.1747 C.ar    1  UNL1       -0.0472
     25 C           3.5156   -5.0205  -10.3728 C.ar    1  UNL1       -0.0568
     26 C           3.1511   -6.3068  -10.7188 C.ar    1  UNL1       -0.0404
     27 C           1.8090   -6.6275  -10.8787 C.ar    1  UNL1        0.0298
     28 C           0.8375   -5.6538  -10.6845 C.ar    1  UNL1       -0.0404
     29 C           1.2087   -4.3707  -10.3332 C.ar    1  UNL1       -0.0568
     30 N           1.4371   -7.9262  -11.2337 N.pl3   1  UNL1       -0.3276
     31 C           2.4630   -8.9519  -11.4381 C.3     1  UNL1        0.0257
     32 C           2.7399   -9.6672  -10.1143 C.3     1  UNL1        0.0383
     33 CL          4.0025  -10.9295  -10.3660 Cl      1  UNL1       -0.1238
     34 C           0.0212   -8.2627  -11.4015 C.3     1  UNL1        0.0257
     35 C          -0.3915   -8.0215  -12.8549 C.3     1  UNL1        0.0383
     36 CL         -2.1341   -8.4357  -13.0615 Cl      1  UNL1       -0.1238
     37 O           4.8804    0.7780   -1.7088 O.3     1  UNL1       -0.3804
     38 C           2.0672    5.1147    0.0513 C.3     1  UNL1       -0.0458
     39 C           0.9824    5.5883    1.0407 C.3     1  UNL1       -0.0302
     40 C          -0.2767    4.8129    0.6973 C.2     1  UNL1       -0.0559
     41 C          -1.3572    5.4701    0.3077 C.2     1  UNL1       -0.0149
     42 C          -2.5386    4.7244   -0.1640 C.2     1  UNL1        0.1787
     43 O          -3.4274    5.2828   -0.7797 O.2     1  UNL1       -0.2879
     44 C          -2.6087    3.2818    0.1294 C.2     1  UNL1       -0.0180
     45 C          -1.5155    2.6482    0.5414 C.2     1  UNL1       -0.0701
     46 C          -0.1994    3.3066    0.7504 C.3     1  UNL1        0.0131
     47 C           0.2267    2.9180    2.1651 C.3     1  UNL1       -0.0520
     48 O          -0.1220    0.7280   -0.5880 O.3     1  UNL1       -0.3914
     49 H           3.0237    3.8457   -3.3136 H       1  UNL1        0.0236
     50 H           1.8932    2.5332   -3.7229 H       1  UNL1        0.0236
     51 H           1.4702    3.7094   -2.4556 H       1  UNL1        0.0236
     52 H           2.6824    0.2148   -1.2426 H       1  UNL1        0.0297
     53 H           1.4712    0.7945   -2.3976 H       1  UNL1        0.0297
     54 H           3.9205    4.8702   -1.6381 H       1  UNL1        0.0269
     55 H           5.0626    4.3587   -0.3627 H       1  UNL1        0.0269
     56 H           6.1565    2.8970   -1.7890 H       1  UNL1        0.0297
     57 H           5.2907    3.7102   -3.1228 H       1  UNL1        0.0297
     58 H           4.4983   -0.4665   -4.0157 H       1  UNL1        0.0779
     59 H           2.8453   -0.0430   -3.9602 H       1  UNL1        0.0779
     60 H           2.6783   -0.4085   -8.2691 H       1  UNL1        0.0378
     61 H           4.3912   -0.8921   -8.2944 H       1  UNL1        0.0378
     62 H           3.7330   -3.2457   -7.8749 H       1  UNL1        0.0274
     63 H           2.0201   -2.7621   -7.8495 H       1  UNL1        0.0274
     64 H           2.2158   -1.9465  -10.1830 H       1  UNL1        0.0313
     65 H           3.9287   -2.4300  -10.2084 H       1  UNL1        0.0313
     66 H           4.5591   -4.7693  -10.2529 H       1  UNL1        0.0621
     67 H           3.9089   -7.0615  -10.8691 H       1  UNL1        0.0636
     68 H          -0.2068   -5.8998  -10.8077 H       1  UNL1        0.0636
     69 H           0.4539   -3.6133  -10.1816 H       1  UNL1        0.0621
     70 H           2.1126   -9.6744  -12.1752 H       1  UNL1        0.0475
     71 H           3.3794   -8.4828  -11.7963 H       1  UNL1        0.0475
     72 H           3.0904   -8.9447   -9.3773 H       1  UNL1        0.0445
     73 H           1.8235  -10.1363   -9.7562 H       1  UNL1        0.0445
     74 H          -0.1355   -9.3113  -11.1485 H       1  UNL1        0.0475
     75 H          -0.5815   -7.6363  -10.7439 H       1  UNL1        0.0475
     76 H          -0.2348   -6.9730  -13.1079 H       1  UNL1        0.0445
     77 H           0.2112   -8.6480  -13.5125 H       1  UNL1        0.0445
     78 H           5.7534    0.5005   -2.0186 H       1  UNL1        0.2108
     79 H           1.7763    5.3917   -0.9586 H       1  UNL1        0.0271
     80 H           3.0137    5.5858    0.3099 H       1  UNL1        0.0271
     81 H           0.8068    6.6561    0.9003 H       1  UNL1        0.0310
     82 H           1.2967    5.3950    2.0603 H       1  UNL1        0.0310
     83 H          -1.3730    6.5508    0.3350 H       1  UNL1        0.0655
     84 H          -3.5387    2.7448    0.0106 H       1  UNL1        0.0653
     85 H          -1.6023    1.5952    0.7688 H       1  UNL1        0.0582
     86 H           1.1545    3.4307    2.4188 H       1  UNL1        0.0241
     87 H          -0.5523    3.2059    2.8711 H       1  UNL1        0.0241
     88 H           0.3818    1.8403    2.2147 H       1  UNL1        0.0241
     89 H          -0.0348   -0.2314   -0.6724 H       1  UNL1        0.2098
@<TRIPOS>BOND
     1     1     2    1
     2     1    49    1
     3     1    50    1
     4     1    51    1
     5     2    10    1
     6     2    14    1
     7     2     3    1
     8     3     4    1
     9     3    52    1
    10     3    53    1
    11     4     5    1
    12     4     6    1
    13     4    48    1
    14     6     7    1
    15     6    46    1
    16     6     8    1
    17     8     9    1
    18     8    10    1
    19     8    38    1
    20    10    11    1
    21    10    12    1
    22    12    13    1
    23    12    54    1
    24    12    55    1
    25    13    14    1
    26    13    56    1
    27    13    57    1
    28    14    15    1
    29    14    37    1
    30    15    16    2
    31    15    17    1
    32    17    18    1
    33    17    58    1
    34    17    59    1
    35    18    19    1
    36    19    20    2
    37    19    21    1
    38    21    22    1
    39    21    60    1
    40    21    61    1
    41    22    23    1
    42    22    62    1
    43    22    63    1
    44    23    24    1
    45    23    64    1
    46    23    65    1
    47    24    29   ar
    48    24    25   ar
    49    25    26   ar
    50    25    66    1
    51    26    27   ar
    52    26    67    1
    53    27    28   ar
    54    27    30    1
    55    28    29   ar
    56    28    68    1
    57    29    69    1
    58    30    31    1
    59    30    34    1
    60    31    32    1
    61    31    70    1
    62    31    71    1
    63    32    33    1
    64    32    72    1
    65    32    73    1
    66    34    35    1
    67    34    74    1
    68    34    75    1
    69    35    36    1
    70    35    76    1
    71    35    77    1
    72    37    78    1
    73    38    39    1
    74    38    79    1
    75    38    80    1
    76    39    40    1
    77    39    81    1
    78    39    82    1
    79    40    46    1
    80    40    41    2
    81    41    42    1
    82    41    83    1
    83    42    43    2
    84    42    44    1
    85    44    45    2
    86    44    84    1
    87    45    46    1
    88    45    85    1
    89    46    47    1
    90    47    86    1
    91    47    87    1
    92    47    88    1
    93    48    89    1
