@<TRIPOS>MOLECULE
ZINC03830447
 57 60 0 0 0
SMALL
GASTEIGER

@<TRIPOS>ATOM
      1 C           5.2052   -1.1052   -0.1079 C.3     1  UNL1       -0.0433
      2 C           5.5445    0.3236   -2.0330 C.3     1  UNL1       -0.0433
      3 C           3.4074    0.3129   -0.8950 C.3     1  UNL1       -0.0122
      4 C           2.7544    0.4026    0.4858 C.3     1  UNL1        0.0858
      5 N           1.3040    0.5399    0.3320 N.ar    1  UNL1       -0.2151
      6 C           0.5935    1.6876    0.2256 C.ar    1  UNL1        0.2098
      7 N          -0.6719    1.3492    0.1047 N.ar    1  UNL1       -0.1015
      8 N          -0.8001    0.0717    0.1282 N.ar    1  UNL1       -0.0222
      9 N           0.3514   -0.4918    0.2634 N.ar    1  UNL1       -0.0430
     10 S           1.2419    3.3258    0.2454 S.3     1  UNL1       -0.0801
     11 C          -0.2898    4.2723    0.0607 C.3     1  UNL1        0.0251
     12 C           0.0280    5.7454    0.0512 C.2     1  UNL1       -0.0264
     13 CA          0.0280    6.3269   -1.1387 C.2     1  UNL1        0.0607
     14 N           0.2546    7.7089   -1.2508 N.am    1  UNL1       -0.2533
     15 C           0.9185    8.5860   -0.2345 C.3     1  UNL1        0.1041
     16 H           2.0083    8.5766   -0.2137 H       1  UNL1        0.0644
     17 CA          0.2843    9.7451   -0.9959 C.3     1  UNL1        0.1283
     18 HA         -0.5674   10.1916   -0.4827 H       1  UNL1        0.0622
     19 C          -0.1065    8.7257   -2.0525 C.2     1  UNL1        0.2438
     20 O          -0.5629    8.8000   -3.1738 O.2     1  UNL1       -0.2731
     21 N           1.2523   10.7387   -1.4671 N.am    1  UNL1       -0.3014
     22 C           0.8603   12.0089   -1.6890 C.2     1  UNL1        0.2195
     23 O          -0.2938   12.3294   -1.4987 O.2     1  UNL1       -0.2754
     24 C           1.8561   13.0310   -2.1737 C.3     1  UNL1        0.0668
     25 C           1.1688   14.3616   -2.3417 C.ar    1  UNL1        0.0592
     26 C           1.6362   15.4667   -1.7135 C.ar    1  UNL1        0.0007
     27 S           0.4603   16.6900   -2.2737 S.2     1  UNL1       -0.0608
     28 C          -0.5133   15.6366   -3.2524 C.ar    1  UNL1        0.1557
     29 N           0.0944   14.4755   -3.0999 N.ar    1  UNL1       -0.2296
     30 N          -1.6398   15.9382   -4.0015 N.pl3   1  UNL1       -0.3375
     31 S           0.1259    8.1687    1.3551 S.3     1  UNL1       -0.1311
     32 C           0.3077    6.3583    1.3846 C.3     1  UNL1        0.0195
     33 C          -0.2157    5.5220   -2.3493 C.2     1  UNL1        0.0860
     34 O           0.7206    5.0534   -2.9659 O.co2   1  UNL1       -0.5433
     35 H           4.8401   -1.9254   -0.7259 H       1  UNL1        0.0777
     36 H           6.2878   -1.1812   -0.0058 H       1  UNL1        0.0777
     37 H           4.7427   -1.1590    0.8776 H       1  UNL1        0.0777
     38 H           5.3286    1.3086   -2.4470 H       1  UNL1        0.0777
     39 H           6.6199    0.2173   -1.8901 H       1  UNL1        0.0777
     40 H           5.1917   -0.4449   -2.7207 H       1  UNL1        0.0777
     41 H           3.0148   -0.5537   -1.4269 H       1  UNL1        0.0832
     42 H           3.1861    1.2177   -1.4610 H       1  UNL1        0.0832
     43 H           3.1470    1.2692    1.0178 H       1  UNL1        0.0563
     44 H           2.9757   -0.5022    1.0519 H       1  UNL1        0.0563
     45 H          -0.7749    3.9992   -0.8764 H       1  UNL1        0.0427
     46 H          -0.9570    4.0499    0.8935 H       1  UNL1        0.0427
     47 H           2.1753   10.4823   -1.6193 H       1  UNL1        0.1495
     48 H           2.6615   13.1273   -1.4456 H       1  UNL1        0.0422
     49 H           2.2680   12.7114   -3.1310 H       1  UNL1        0.0422
     50 H           2.4859   15.5781   -1.0563 H       1  UNL1        0.0712
     51 H          -2.0880   15.2411   -4.5056 H       1  UNL1        0.1442
     52 H          -1.9800   16.8464   -4.0218 H       1  UNL1        0.1442
     53 H          -0.3852    5.9445    2.1172 H       1  UNL1        0.0423
     54 H           1.3268    6.1105    1.6817 H       1  UNL1        0.0423
     55 N           4.8708    0.1963   -0.7236 N.4     1  UNL1        0.2322
     56 H           5.1955    0.9502   -0.1068 H       1  UNL1        0.2028
     57 OXT        -1.4769    5.3057   -2.7722 O.co2   1  UNL1       -0.5433
@<TRIPOS>UNITY_ATOM_ATTR
55 1
charge 1
57 1
charge -1
@<TRIPOS>BOND
     1     1    35    1
     2     1    36    1
     3     1    37    1
     4     1    55    1
     5     2    38    1
     6     2    39    1
     7     2    40    1
     8     2    55    1
     9     3     4    1
    10     3    41    1
    11     3    42    1
    12     3    55    1
    13     4     5    1
    14     4    43    1
    15     4    44    1
    16     5     9   ar
    17     5     6   ar
    18     6     7   ar
    19     6    10    1
    20     7     8   ar
    21     8     9   ar
    22    10    11    1
    23    11    12    1
    24    11    45    1
    25    11    46    1
    26    12    32    1
    27    12    13    2
    28    13    14    1
    29    13    33    1
    30    14    19   am
    31    14    15    1
    32    15    16    1
    33    15    17    1
    34    15    31    1
    35    17    18    1
    36    17    19    1
    37    17    21    1
    38    19    20    2
    39    21    22   am
    40    21    47    1
    41    22    23    2
    42    22    24    1
    43    24    25    1
    44    24    48    1
    45    24    49    1
    46    25    29   ar
    47    25    26   ar
    48    26    27   ar
    49    26    50    1
    50    27    28   ar
    51    28    29   ar
    52    28    30    1
    53    30    51    1
    54    30    52    1
    55    31    32    1
    56    32    53    1
    57    32    54    1
    58    33    34   ar
    59    33    57   ar
    60    55    56    1
