@<TRIPOS>MOLECULE
ZINC11592836
 53 56 0 0 0
SMALL
GASTEIGER

@<TRIPOS>ATOM
      1 C           0.0021   -0.0041    0.0020 C.3     1  UNL1        0.0333
      2 C          -0.0184    1.5028    0.0103 C.2     1  UNL1        0.3054
      3 O           1.0197    2.1211    0.0037 O.2     1  UNL1       -0.2511
      4 O          -1.1898    2.1580    0.0194 O.3     1  UNL1       -0.4447
      5 C          -1.1336    3.6069    0.0270 C.3     1  UNL1        0.1784
      6 C          -0.4187    4.1169    1.2917 C.3     1  UNL1       -0.0005
      7 C          -1.3495    5.1616    1.9388 C.3     1  UNL1       -0.0447
      8 C          -2.7707    4.7987    1.4352 C.3     1  UNL1       -0.0278
      9 H          -3.3962    5.7147    1.3657 H       1  UNL1        0.0310
     10 C          -2.5402    4.2142    0.0420 C.3     1  UNL1        0.0223
     11 C          -3.6066    3.2668   -0.4480 C.3     1  UNL1       -0.0425
     12 C          -4.1408    2.3200    0.6208 C.3     1  UNL1       -0.0487
     13 C          -4.6198    3.1520    1.8130 C.3     1  UNL1       -0.0314
     14 H          -5.3144    3.9190    1.4642 H       1  UNL1        0.0309
     15 C          -3.3940    3.8252    2.4276 C.3     1  UNL1       -0.0339
     16 H          -3.7320    4.3972    3.3073 H       1  UNL1        0.0307
     17 C          -2.3876    2.7805    2.8974 C.3     1  UNL1       -0.0460
     18 C          -3.0176    1.9108    3.9890 C.3     1  UNL1       -0.0308
     19 C          -4.3262    1.3385    3.4795 C.2     1  UNL1       -0.0629
     20 C          -4.5431    0.0360    3.6445 C.2     1  UNL1       -0.0197
     21 C          -5.8265   -0.5599    3.2655 C.2     1  UNL1        0.1561
     22 O          -5.9502   -1.7619    3.1311 O.2     1  UNL1       -0.2927
     23 C          -6.9905    0.3825    3.0458 C.3     1  UNL1        0.0104
     24 C          -6.5028    1.5640    2.2099 C.3     1  UNL1       -0.0392
     25 C          -5.3177    2.2661    2.8452 C.3     1  UNL1       -0.0160
     26 H          -5.7052    2.9196    3.6324 H       1  UNL1        0.0349
     27 C          -2.5203    5.4006   -0.9508 C.3     1  UNL1       -0.0547
     28 C          -0.4064    4.0744   -1.1723 C.1     1  UNL1       -0.0576
     29 C           0.1711    4.4455   -2.1247 C.1     1  UNL1       -0.1152
     30 H           0.0168   -0.3729    1.0276 H       1  UNL1        0.0342
     31 H          -0.8878   -0.3767   -0.5053 H       1  UNL1        0.0342
     32 H           0.8920   -0.3525   -0.5222 H       1  UNL1        0.0342
     33 H          -0.2275    3.2931    1.9767 H       1  UNL1        0.0314
     34 H           0.5305    4.5856    1.0168 H       1  UNL1        0.0314
     35 H          -1.2954    5.1034    3.0280 H       1  UNL1        0.0270
     36 H          -1.0715    6.1691    1.6174 H       1  UNL1        0.0270
     37 H          -3.2075    2.6769   -1.2773 H       1  UNL1        0.0272
     38 H          -4.4430    3.8592   -0.8374 H       1  UNL1        0.0272
     39 H          -3.3672    1.6222    0.9328 H       1  UNL1        0.0268
     40 H          -4.9773    1.7543    0.2024 H       1  UNL1        0.0268
     41 H          -2.0729    2.1482    2.0720 H       1  UNL1        0.0271
     42 H          -1.5113    3.2781    3.3235 H       1  UNL1        0.0271
     43 H          -3.2058    2.5206    4.8741 H       1  UNL1        0.0310
     44 H          -2.3369    1.0995    4.2459 H       1  UNL1        0.0310
     45 H          -3.7641   -0.5881    4.0612 H       1  UNL1        0.0652
     46 H          -7.3307    0.7037    3.9296 H       1  UNL1        0.0345
     47 H          -7.7910   -0.1378    2.5153 H       1  UNL1        0.0345
     48 H          -7.3212    2.2817    2.1071 H       1  UNL1        0.0275
     49 H          -6.2328    1.2023    1.2202 H       1  UNL1        0.0275
     50 H          -2.2900    5.0336   -1.9510 H       1  UNL1        0.0237
     51 H          -3.4967    5.8852   -0.9576 H       1  UNL1        0.0237
     52 H          -1.7603    6.1190   -0.6435 H       1  UNL1        0.0237
     53 H           0.6875    4.7775   -2.9765 H       1  UNL1        0.1229
@<TRIPOS>BOND
     1     1     2    1
     2     1    30    1
     3     1    31    1
     4     1    32    1
     5     2     3    2
     6     2     4    1
     7     4     5    1
     8     5    10    1
     9     5     6    1
    10     5    28    1
    11     6     7    1
    12     6    33    1
    13     6    34    1
    14     7     8    1
    15     7    35    1
    16     7    36    1
    17     8     9    1
    18     8    15    1
    19     8    10    1
    20    10    11    1
    21    10    27    1
    22    11    12    1
    23    11    37    1
    24    11    38    1
    25    12    13    1
    26    12    39    1
    27    12    40    1
    28    13    14    1
    29    13    25    1
    30    13    15    1
    31    15    16    1
    32    15    17    1
    33    17    18    1
    34    17    41    1
    35    17    42    1
    36    18    19    1
    37    18    43    1
    38    18    44    1
    39    19    25    1
    40    19    20    2
    41    20    21    1
    42    20    45    1
    43    21    22    2
    44    21    23    1
    45    23    24    1
    46    23    46    1
    47    23    47    1
    48    24    25    1
    49    24    48    1
    50    24    49    1
    51    25    26    1
    52    27    50    1
    53    27    51    1
    54    27    52    1
    55    28    29    3
    56    29    53    1
