@<TRIPOS>MOLECULE
ZINC01694304
 43 44 0 0 0
SMALL
GASTEIGER

@<TRIPOS>ATOM
      1 C           3.9397   -7.1267   -1.8315 C.3     1  UNL1        0.0332
      2 C           3.5455   -6.1462   -0.7571 C.2     1  UNL1        0.3040
      3 O           3.8898   -6.3320    0.3861 O.2     1  UNL1       -0.2512
      4 O           2.8120   -5.0666   -1.0701 O.3     1  UNL1       -0.4621
      5 C           2.4691   -4.1652    0.0155 C.3     1  UNL1        0.1222
      6 C           1.6375   -3.0027   -0.5303 C.3     1  UNL1        0.1357
      7 H           0.7573   -3.3787   -1.0517 H       1  UNL1        0.0670
      8 C           1.2221   -2.0541    0.6160 C.3     1  UNL1        0.1732
      9 H           0.2035   -2.2688    0.9392 H       1  UNL1        0.0801
     10 C           1.3046   -0.6456   -0.0139 C.3     1  UNL1        0.1885
     11 H           2.0375   -0.0327    0.5108 H       1  UNL1        0.0819
     12 C           1.7601   -0.9099   -1.4661 C.3     1  UNL1        0.1971
     13 H           0.8977   -0.9633   -2.1305 H       1  UNL1        0.0894
     14 O           2.4350   -2.1857   -1.4147 O.3     1  UNL1       -0.3407
     15 N           2.6809    0.1392   -1.9107 N.ar    1  UNL1       -0.1817
     16 C           2.5253    0.6859   -3.1296 C.ar    1  UNL1        0.3479
     17 O           1.6218    0.3020   -3.8471 O.2     1  UNL1       -0.2449
     18 N           3.3550    1.6514   -3.5675 N.ar    1  UNL1       -0.2725
     19 H           3.2294    2.0353   -4.4494 H       1  UNL1        0.1735
     20 C           4.3607    2.0857   -2.7800 C.ar    1  UNL1        0.2724
     21 O           5.1150    2.9582   -3.1688 O.2     1  UNL1       -0.2661
     22 C           4.5340    1.4932   -1.4506 C.ar    1  UNL1        0.1125
     23 N           3.7077    0.5634   -1.0589 N.ar    1  UNL1       -0.1676
     24 O           0.0021   -0.0041    0.0020 O.3     1  UNL1       -0.4530
     25 C          -0.0161    1.3381    0.0094 C.2     1  UNL1        0.3045
     26 O           1.0219    1.9564    0.0028 O.2     1  UNL1       -0.2512
     27 C          -1.3313    2.0738    0.0196 C.3     1  UNL1        0.0332
     28 O           2.1457   -2.1679    1.7306 O.3     1  UNL1       -0.4549
     29 C           1.8014   -3.0016    2.7246 C.2     1  UNL1        0.3044
     30 O           0.7627   -3.6160    2.6653 O.2     1  UNL1       -0.2512
     31 C           2.7104   -3.1714    3.9145 C.3     1  UNL1        0.0332
     32 H           4.8953   -6.8283   -2.2627 H       1  UNL1        0.0342
     33 H           4.0317   -8.1227   -1.3984 H       1  UNL1        0.0342
     34 H           3.1773   -7.1381   -2.6104 H       1  UNL1        0.0342
     35 H           3.3819   -3.7779    0.4681 H       1  UNL1        0.0725
     36 H           1.8915   -4.7041    0.7665 H       1  UNL1        0.0725
     37 H           5.3320    1.8249   -0.8030 H       1  UNL1        0.0903
     38 H          -2.1501    1.3543    0.0196 H       1  UNL1        0.0342
     39 H          -1.3933    2.6947    0.9133 H       1  UNL1        0.0342
     40 H          -1.4018    2.7044   -0.8666 H       1  UNL1        0.0342
     41 H           3.5918   -2.5421    3.7912 H       1  UNL1        0.0342
     42 H           2.1801   -2.8803    4.8213 H       1  UNL1        0.0342
     43 H           3.0167   -4.2146    3.9918 H       1  UNL1        0.0342
@<TRIPOS>BOND
     1     1     2    1
     2     1    32    1
     3     1    33    1
     4     1    34    1
     5     2     3    2
     6     2     4    1
     7     4     5    1
     8     5     6    1
     9     5    35    1
    10     5    36    1
    11     6     7    1
    12     6    14    1
    13     6     8    1
    14     8     9    1
    15     8    10    1
    16     8    28    1
    17    10    11    1
    18    10    12    1
    19    10    24    1
    20    12    13    1
    21    12    14    1
    22    12    15    1
    23    15    23   ar
    24    15    16   ar
    25    16    17    2
    26    16    18   ar
    27    18    19    1
    28    18    20   ar
    29    20    21    2
    30    20    22   ar
    31    22    23   ar
    32    22    37    1
    33    24    25    1
    34    25    26    2
    35    25    27    1
    36    27    38    1
    37    27    39    1
    38    27    40    1
    39    28    29    1
    40    29    30    2
    41    29    31    1
    42    31    41    1
    43    31    42    1
    44    31    43    1
