@<TRIPOS>MOLECULE
ZINC03831376
 71 74 0 0 0
SMALL
GASTEIGER

@<TRIPOS>ATOM
      1 C           2.2855    3.1501   -2.9144 C.3     1  UNL1       -0.0562
      2 C           2.9451    2.2540   -1.8626 C.3     1  UNL1        0.0092
      3 C           2.0675    1.0807   -1.5209 C.3     1  UNL1       -0.0178
      4 C           1.1173    1.4072   -0.3534 C.3     1  UNL1        0.0600
      5 H           1.5551    1.0224    0.5727 H       1  UNL1        0.0596
      6 C           0.8905    2.9034   -0.2341 C.3     1  UNL1        0.0007
      7 H           0.5541    3.2914   -1.2092 H       1  UNL1        0.0340
      8 C           2.2005    3.6005    0.1596 C.3     1  UNL1       -0.0311
      9 H           2.4160    3.3846    1.2247 H       1  UNL1        0.0308
     10 C           3.3607    3.0306   -0.5993 C.3     1  UNL1       -0.0292
     11 H           3.9035    2.3354    0.0789 H       1  UNL1        0.0310
     12 C           4.3943    4.0192   -1.1575 C.3     1  UNL1       -0.0463
     13 C           5.1786    3.1605   -2.1885 C.3     1  UNL1       -0.0161
     14 C           4.3362    1.8813   -2.4241 C.3     1  UNL1        0.1326
     15 C           4.2293    1.5800   -3.8923 C.2     1  UNL1        0.2022
     16 O           4.4610    2.4433   -4.7043 O.2     1  UNL1       -0.2907
     17 C           3.8331    0.2004   -4.3515 C.3     1  UNL1        0.1530
     18 O           3.8013    0.1639   -5.8027 O.3     1  UNL1       -0.4568
     19 C           3.4637   -1.0021   -6.3756 C.2     1  UNL1        0.3080
     20 O           3.2033   -1.9604   -5.6874 O.2     1  UNL1       -0.2508
     21 C           3.4093   -1.1159   -7.8773 C.3     1  UNL1        0.0498
     22 C           3.0020   -2.5383   -8.2666 C.3     1  UNL1       -0.0277
     23 C           1.6238   -2.8525   -7.6812 C.3     1  UNL1       -0.0596
     24 C           2.9468   -2.6538   -9.7913 C.3     1  UNL1       -0.0596
     25 C           4.0281   -3.5312   -7.7168 C.3     1  UNL1       -0.0596
     26 O           4.8804    0.7780   -1.7088 O.3     1  UNL1       -0.3804
     27 C           2.0672    5.1147    0.0513 C.3     1  UNL1       -0.0458
     28 C           0.9824    5.5883    1.0407 C.3     1  UNL1       -0.0302
     29 C          -0.2767    4.8129    0.6973 C.2     1  UNL1       -0.0559
     30 C          -1.3572    5.4701    0.3077 C.2     1  UNL1       -0.0149
     31 C          -2.5386    4.7244   -0.1640 C.2     1  UNL1        0.1787
     32 O          -3.4274    5.2828   -0.7797 O.2     1  UNL1       -0.2879
     33 C          -2.6087    3.2818    0.1294 C.2     1  UNL1       -0.0180
     34 C          -1.5155    2.6482    0.5414 C.2     1  UNL1       -0.0701
     35 C          -0.1994    3.3066    0.7504 C.3     1  UNL1        0.0131
     36 C           0.2267    2.9180    2.1651 C.3     1  UNL1       -0.0520
     37 O          -0.1220    0.7280   -0.5880 O.3     1  UNL1       -0.3914
     38 H           3.0237    3.8457   -3.3136 H       1  UNL1        0.0236
     39 H           1.8932    2.5332   -3.7229 H       1  UNL1        0.0236
     40 H           1.4702    3.7094   -2.4556 H       1  UNL1        0.0236
     41 H           2.6824    0.2148   -1.2426 H       1  UNL1        0.0297
     42 H           1.4712    0.7945   -2.3976 H       1  UNL1        0.0297
     43 H           3.9205    4.8702   -1.6381 H       1  UNL1        0.0269
     44 H           5.0626    4.3587   -0.3627 H       1  UNL1        0.0269
     45 H           6.1565    2.8970   -1.7890 H       1  UNL1        0.0297
     46 H           5.2907    3.7102   -3.1228 H       1  UNL1        0.0297
     47 H           4.4983   -0.4665   -4.0157 H       1  UNL1        0.0779
     48 H           2.8453   -0.0430   -3.9602 H       1  UNL1        0.0779
     49 H           2.6783   -0.4085   -8.2691 H       1  UNL1        0.0383
     50 H           4.3912   -0.8921   -8.2944 H       1  UNL1        0.0383
     51 H           0.8928   -2.1452   -8.0729 H       1  UNL1        0.0235
     52 H           1.3336   -3.8659   -7.9585 H       1  UNL1        0.0235
     53 H           1.6631   -2.7702   -6.5950 H       1  UNL1        0.0235
     54 H           3.9287   -2.4300  -10.2084 H       1  UNL1        0.0235
     55 H           2.6566   -3.6672  -10.0686 H       1  UNL1        0.0235
     56 H           2.2158   -1.9465  -10.1830 H       1  UNL1        0.0235
     57 H           4.0674   -3.4489   -6.6306 H       1  UNL1        0.0235
     58 H           3.7379   -4.5446   -7.9941 H       1  UNL1        0.0235
     59 H           5.0099   -3.3074   -8.1339 H       1  UNL1        0.0235
     60 H           5.7534    0.5005   -2.0186 H       1  UNL1        0.2108
     61 H           1.7763    5.3917   -0.9586 H       1  UNL1        0.0271
     62 H           3.0137    5.5858    0.3099 H       1  UNL1        0.0271
     63 H           0.8068    6.6561    0.9003 H       1  UNL1        0.0310
     64 H           1.2967    5.3950    2.0603 H       1  UNL1        0.0310
     65 H          -1.3730    6.5508    0.3350 H       1  UNL1        0.0655
     66 H          -3.5387    2.7448    0.0106 H       1  UNL1        0.0653
     67 H          -1.6023    1.5952    0.7688 H       1  UNL1        0.0582
     68 H           1.1545    3.4307    2.4188 H       1  UNL1        0.0241
     69 H          -0.5523    3.2059    2.8711 H       1  UNL1        0.0241
     70 H           0.3818    1.8403    2.2147 H       1  UNL1        0.0241
     71 H          -0.0348   -0.2314   -0.6724 H       1  UNL1        0.2098
@<TRIPOS>BOND
     1     1     2    1
     2     1    38    1
     3     1    39    1
     4     1    40    1
     5     2    10    1
     6     2    14    1
     7     2     3    1
     8     3     4    1
     9     3    41    1
    10     3    42    1
    11     4     5    1
    12     4     6    1
    13     4    37    1
    14     6     7    1
    15     6    35    1
    16     6     8    1
    17     8     9    1
    18     8    10    1
    19     8    27    1
    20    10    11    1
    21    10    12    1
    22    12    13    1
    23    12    43    1
    24    12    44    1
    25    13    14    1
    26    13    45    1
    27    13    46    1
    28    14    15    1
    29    14    26    1
    30    15    16    2
    31    15    17    1
    32    17    18    1
    33    17    47    1
    34    17    48    1
    35    18    19    1
    36    19    20    2
    37    19    21    1
    38    21    22    1
    39    21    49    1
    40    21    50    1
    41    22    23    1
    42    22    24    1
    43    22    25    1
    44    23    51    1
    45    23    52    1
    46    23    53    1
    47    24    54    1
    48    24    55    1
    49    24    56    1
    50    25    57    1
    51    25    58    1
    52    25    59    1
    53    26    60    1
    54    27    28    1
    55    27    61    1
    56    27    62    1
    57    28    29    1
    58    28    63    1
    59    28    64    1
    60    29    35    1
    61    29    30    2
    62    30    31    1
    63    30    65    1
    64    31    32    2
    65    31    33    1
    66    33    34    2
    67    33    66    1
    68    34    35    1
    69    34    67    1
    70    35    36    1
    71    36    68    1
    72    36    69    1
    73    36    70    1
    74    37    71    1
