@<TRIPOS>MOLECULE
ZINC03830950
 28 28 0 0 0
SMALL
GASTEIGER

@<TRIPOS>ATOM
      1 C           2.1988    1.0094    1.1682 C.3     1  UNL1       -0.0647
      2 C           1.4227    1.6154   -0.0028 C.3     1  UNL1       -0.0477
      3 C          -0.0127    1.0858    0.0080 C.3     1  UNL1        0.0024
      4 H           0.0021   -0.0041    0.0020 H       1  UNL1        0.0363
      5 C          -0.7527    1.5927   -1.2315 C.3     1  UNL1       -0.0177
      6 C          -2.1255    0.9734   -1.2852 C.ar    1  UNL1       -0.0187
      7 C          -2.3179   -0.2241   -1.9510 C.ar    1  UNL1        0.0186
      8 C          -3.5751   -0.7986   -1.9978 C.ar    1  UNL1       -0.0334
      9 C          -4.6458   -0.1721   -1.3888 C.ar    1  UNL1        0.0360
     10 C          -4.4572    1.0331   -0.7244 C.ar    1  UNL1        0.0514
     11 C          -3.1917    1.6048   -0.6744 C.ar    1  UNL1        0.0392
     12 I          -2.9007    3.4220    0.3267 I       1  UNL1       -0.0416
     13 N          -5.5380    1.6696   -0.1079 N.pl3   1  UNL1       -0.3564
     14 I          -6.5512   -1.0394   -1.4671 I       1  UNL1       -0.0419
     15 I          -0.6995   -1.1735   -2.8830 I       1  UNL1       -0.0435
     16 C          -0.7181    1.5718    1.2479 C.2     1  UNL1        0.0451
     17 O          -0.1328    2.2701    2.0414 O.co2   1  UNL1       -0.5495
     18 H           1.7165    1.2860    2.1057 H       1  UNL1        0.0230
     19 H           2.2113   -0.0764    1.0727 H       1  UNL1        0.0230
     20 H           3.2213    1.3866    1.1604 H       1  UNL1        0.0230
     21 H           1.9050    1.3387   -0.9404 H       1  UNL1        0.0269
     22 H           1.4101    2.7011    0.0927 H       1  UNL1        0.0269
     23 H          -0.8452    2.6775   -1.1811 H       1  UNL1        0.0320
     24 H          -0.1944    1.3168   -2.1261 H       1  UNL1        0.0320
     25 H          -3.7211   -1.7357   -2.5145 H       1  UNL1        0.0639
     26 H          -5.4051    2.5113    0.3555 H       1  UNL1        0.1424
     27 H          -6.4209    1.2695   -0.1435 H       1  UNL1        0.1424
     28 O          -1.9966    1.2289    1.4707 O.co2   1  UNL1       -0.5495
@<TRIPOS>UNITY_ATOM_ATTR
28 1
charge -1
@<TRIPOS>BOND
     1     1     2    1
     2     1    18    1
     3     1    19    1
     4     1    20    1
     5     2     3    1
     6     2    21    1
     7     2    22    1
     8     3     4    1
     9     3     5    1
    10     3    16    1
    11     5     6    1
    12     5    23    1
    13     5    24    1
    14     6    11   ar
    15     6     7   ar
    16     7     8   ar
    17     7    15    1
    18     8     9   ar
    19     8    25    1
    20     9    10   ar
    21     9    14    1
    22    10    11   ar
    23    10    13    1
    24    11    12    1
    25    13    26    1
    26    13    27    1
    27    16    17   ar
    28    16    28   ar
