@<TRIPOS>MOLECULE
ZINC03830288
 57 60 0 0 0
SMALL
GASTEIGER

@<TRIPOS>ATOM
      1 C          -5.1338    1.6343   -4.3465 C.3     1  UNL1       -0.0594
      2 C          -4.4261    2.6345   -3.4347 C.3     1  UNL1       -0.0071
      3 H          -5.1568    3.3589   -3.0510 H       1  UNL1        0.0330
      4 C          -3.7538    1.8970   -2.2487 C.3     1  UNL1       -0.0436
      5 C          -2.4301    2.6732   -2.0845 C.3     1  UNL1       -0.0263
      6 H          -2.6566    3.6536   -1.6183 H       1  UNL1        0.0311
      7 C          -1.3930    1.9486   -1.2329 C.3     1  UNL1        0.0003
      8 H          -1.5746    0.8639   -1.3234 H       1  UNL1        0.0336
      9 C          -1.6675    2.3425    0.2224 C.3     1  UNL1       -0.0432
     10 C          -0.5843    1.8393    1.1831 C.3     1  UNL1       -0.0301
     11 C           0.6991    2.4830    0.6744 C.2     1  UNL1       -0.0532
     12 C           1.3834    3.3254    1.4284 C.2     1  UNL1       -0.0148
     13 C           2.6272    3.9307    0.9065 C.2     1  UNL1        0.1787
     14 O           3.2280    4.7599    1.5649 O.2     1  UNL1       -0.2879
     15 C           3.1172    3.5304   -0.4213 C.2     1  UNL1       -0.0180
     16 C           2.4064    2.6861   -1.1620 C.2     1  UNL1       -0.0674
     17 C           1.1166    2.0936   -0.7076 C.3     1  UNL1        0.0443
     18 C           0.0020    2.2858   -1.7281 C.3     1  UNL1        0.1526
     19 C           0.0714    3.6602   -2.3916 C.3     1  UNL1        0.0910
     20 H           1.1374    3.8525   -2.6384 H       1  UNL1        0.0626
     21 C          -0.7501    3.7012   -3.6942 C.3     1  UNL1       -0.0151
     22 C          -1.9903    2.8608   -3.5472 C.3     1  UNL1        0.0096
     23 C          -3.2915    3.3766   -4.1899 C.3     1  UNL1        0.1340
     24 C          -3.4604    4.8591   -4.0452 C.2     1  UNL1        0.1904
     25 O          -2.8892    5.4483   -3.1593 O.2     1  UNL1       -0.2919
     26 C          -4.3431    5.6142   -5.0053 C.3     1  UNL1        0.1052
     27 O          -4.3417    7.0016   -4.6631 O.3     1  UNL1       -0.3874
     28 O          -3.3074    3.0000   -5.5680 O.3     1  UNL1       -0.3802
     29 C          -1.7470    1.4939   -4.2279 C.3     1  UNL1       -0.0562
     30 O          -0.3457    4.6767   -1.4707 O.3     1  UNL1       -0.3886
     31 F           0.3535    1.3398   -2.7315 F       1  UNL1       -0.2377
     32 C           1.3731    0.5774   -0.6754 C.3     1  UNL1       -0.0493
     33 H          -5.9146    1.1206   -3.7856 H       1  UNL1        0.0233
     34 H          -5.5797    2.1630   -5.1889 H       1  UNL1        0.0233
     35 H          -4.4122    0.9055   -4.7156 H       1  UNL1        0.0233
     36 H          -3.5688    0.8402   -2.4751 H       1  UNL1        0.0272
     37 H          -4.3634    1.9752   -1.3378 H       1  UNL1        0.0272
     38 H          -2.6330    1.9337    0.5290 H       1  UNL1        0.0272
     39 H          -1.7166    3.4325    0.2990 H       1  UNL1        0.0272
     40 H          -0.5263    0.7555    1.1371 H       1  UNL1        0.0310
     41 H          -0.7888    2.1630    2.2006 H       1  UNL1        0.0310
     42 H           1.0206    3.5831    2.4126 H       1  UNL1        0.0656
     43 H           4.0499    3.9224   -0.8011 H       1  UNL1        0.0653
     44 H           2.7744    2.4171   -2.1417 H       1  UNL1        0.0583
     45 H          -0.1273    3.2925   -4.5357 H       1  UNL1        0.0297
     46 H          -0.9633    4.7543   -3.9687 H       1  UNL1        0.0297
     47 H          -3.9968    5.5002   -5.9365 H       1  UNL1        0.0637
     48 H          -5.3600    5.2263   -4.9459 H       1  UNL1        0.0637
     49 H          -4.8904    7.5498   -5.2406 H       1  UNL1        0.2100
     50 H          -4.1266    3.2279   -6.0285 H       1  UNL1        0.2108
     51 H          -2.7045    1.0200   -4.4440 H       1  UNL1        0.0236
     52 H          -1.1977    1.6436   -5.1574 H       1  UNL1        0.0236
     53 H          -1.1672    0.8546   -3.5622 H       1  UNL1        0.0236
     54 H          -0.2570    5.5771   -1.8120 H       1  UNL1        0.2099
     55 H           2.1849    0.3609    0.0190 H       1  UNL1        0.0242
     56 H           0.4692    0.0628   -0.3494 H       1  UNL1        0.0242
     57 H           1.6470    0.2340   -1.6729 H       1  UNL1        0.0242
@<TRIPOS>BOND
     1     1     2    1
     2     1    33    1
     3     1    34    1
     4     1    35    1
     5     2     3    1
     6     2    23    1
     7     2     4    1
     8     4     5    1
     9     4    36    1
    10     4    37    1
    11     5     6    1
    12     5    22    1
    13     5     7    1
    14     7     8    1
    15     7    18    1
    16     7     9    1
    17     9    10    1
    18     9    38    1
    19     9    39    1
    20    10    11    1
    21    10    40    1
    22    10    41    1
    23    11    17    1
    24    11    12    2
    25    12    13    1
    26    12    42    1
    27    13    14    2
    28    13    15    1
    29    15    16    2
    30    15    43    1
    31    16    17    1
    32    16    44    1
    33    17    18    1
    34    17    32    1
    35    18    19    1
    36    18    31    1
    37    19    20    1
    38    19    21    1
    39    19    30    1
    40    21    22    1
    41    21    45    1
    42    21    46    1
    43    22    23    1
    44    22    29    1
    45    23    24    1
    46    23    28    1
    47    24    25    2
    48    24    26    1
    49    26    27    1
    50    26    47    1
    51    26    48    1
    52    27    49    1
    53    28    50    1
    54    29    51    1
    55    29    52    1
    56    29    53    1
    57    30    54    1
    58    32    55    1
    59    32    56    1
    60    32    57    1
