@<TRIPOS>MOLECULE
ZINC03830577
 37 39 0 0 0
SMALL
GASTEIGER

@<TRIPOS>ATOM
      1 C           2.5419    2.7367    3.3767 C.ar    1  UNL1       -0.0535
      2 C           2.2709    2.1636    2.1452 C.ar    1  UNL1       -0.0432
      3 C           1.4114    2.7952    1.2661 C.ar    1  UNL1       -0.0343
      4 C           0.8243    3.9983    1.6204 C.ar    1  UNL1       -0.0391
      5 C           1.0954    4.5690    2.8498 C.ar    1  UNL1        0.0447
      6 C           1.9560    3.9363    3.7294 C.ar    1  UNL1       -0.0257
      7 C           2.2531    4.5554    5.0708 C.3     1  UNL1       -0.0145
      8 C           3.7539    4.8302    5.1845 C.3     1  UNL1       -0.0462
      9 C           4.0556    5.4587    6.5464 C.3     1  UNL1       -0.0525
     10 C           3.6274    4.4981    7.6576 C.3     1  UNL1       -0.0530
     11 C           2.1265    4.2233    7.5439 C.3     1  UNL1       -0.0525
     12 C           1.8249    3.5948    6.1820 C.3     1  UNL1       -0.0462
     13 CL          0.3577    6.0777    3.2894 Cl      1  UNL1       -0.0832
     14 C           1.2804    1.9752    0.0004 C.3     1  UNL1        0.0242
     15 H           1.3293    2.6217   -0.8758 H       1  UNL1        0.0409
     16 C           2.4813    1.0058    0.0185 C.3     1  UNL1       -0.0371
     17 C           2.7761    0.8758    1.5305 C.3     1  UNL1       -0.0265
     18 C          -0.0143    1.2041    0.0087 C.2     1  UNL1        0.0491
     19 O           0.0021   -0.0041    0.0020 O.co2   1  UNL1       -0.5492
     20 H           3.2136    2.2434    4.0637 H       1  UNL1        0.0624
     21 H           0.1526    4.4923    0.9340 H       1  UNL1        0.0635
     22 H           1.7039    5.4918    5.1684 H       1  UNL1        0.0349
     23 H           4.3032    3.8937    5.0869 H       1  UNL1        0.0271
     24 H           4.0590    5.5145    4.3929 H       1  UNL1        0.0271
     25 H           3.5064    6.3952    6.6440 H       1  UNL1        0.0265
     26 H           5.1248    5.6545    6.6274 H       1  UNL1        0.0265
     27 H           3.8423    4.9459    8.6278 H       1  UNL1        0.0265
     28 H           4.1766    3.5617    7.5600 H       1  UNL1        0.0265
     29 H           1.5773    5.1598    7.6415 H       1  UNL1        0.0265
     30 H           1.8215    3.5390    8.3355 H       1  UNL1        0.0265
     31 H           0.7557    3.3990    6.1009 H       1  UNL1        0.0271
     32 H           2.3741    2.6583    6.0843 H       1  UNL1        0.0271
     33 H           2.2070    0.0412   -0.4087 H       1  UNL1        0.0278
     34 H           3.3339    1.4354   -0.5075 H       1  UNL1        0.0278
     35 H           3.8479    0.7713    1.6989 H       1  UNL1        0.0314
     36 H           2.2419    0.0224    1.9481 H       1  UNL1        0.0314
     37 O          -1.1857    1.8593    0.0178 O.co2   1  UNL1       -0.5492
@<TRIPOS>UNITY_ATOM_ATTR
37 1
charge -1
@<TRIPOS>BOND
     1     1     6   ar
     2     1     2   ar
     3     1    20    1
     4     2    17    1
     5     2     3   ar
     6     3     4   ar
     7     3    14    1
     8     4     5   ar
     9     4    21    1
    10     5     6   ar
    11     5    13    1
    12     6     7    1
    13     7    12    1
    14     7     8    1
    15     7    22    1
    16     8     9    1
    17     8    23    1
    18     8    24    1
    19     9    10    1
    20     9    25    1
    21     9    26    1
    22    10    11    1
    23    10    27    1
    24    10    28    1
    25    11    12    1
    26    11    29    1
    27    11    30    1
    28    12    31    1
    29    12    32    1
    30    14    15    1
    31    14    16    1
    32    14    18    1
    33    16    17    1
    34    16    33    1
    35    16    34    1
    36    17    35    1
    37    17    36    1
    38    18    19   ar
    39    18    37   ar
