@<TRIPOS>MOLECULE
ZINC02041322
 36 35 0 0 0
SMALL
GASTEIGER

@<TRIPOS>ATOM
      1 C          -2.8321    1.7498   -0.1123 C.3     1  UNL1       -0.0650
      2 C          -2.2030    1.1589    1.1511 C.3     1  UNL1       -0.0526
      3 C          -0.7366    1.5867    1.2386 C.3     1  UNL1       -0.0325
      4 H          -0.6697    2.6721    1.1638 H       1  UNL1        0.0305
      5 C           0.0504    0.9471    0.0930 C.3     1  UNL1       -0.0617
      6 C          -0.1513    1.1306    2.5766 C.3     1  UNL1        0.0389
      7 C          -1.0276    1.6474    3.7193 C.3     1  UNL1       -0.0531
      8 C          -0.1068   -0.3981    2.6192 C.3     1  UNL1        0.1027
      9 O          -1.4611   -0.9218    2.6225 O.3     1  UNL1       -0.4499
     10 C          -1.5986   -2.2607    2.6584 C.2     1  UNL1        0.3977
     11 O          -0.6139   -2.9721    2.6861 O.2     1  UNL1       -0.2267
     12 N          -2.8285   -2.8118    2.6635 N.am    1  UNL1       -0.2950
     13 C           1.2660    1.6865    2.7292 C.3     1  UNL1        0.1027
     14 O           1.2128    3.1360    2.7960 O.3     1  UNL1       -0.4499
     15 C           2.3846    3.7850    2.9315 C.2     1  UNL1        0.3977
     16 O           3.4233    3.1574    2.9924 O.2     1  UNL1       -0.2267
     17 N           2.4055    5.1309    2.9998 N.am    1  UNL1       -0.2950
     18 H          -2.2951    1.3877   -0.9890 H       1  UNL1        0.0230
     19 H          -3.8768    1.4450   -0.1746 H       1  UNL1        0.0230
     20 H          -2.7726    2.8374   -0.0732 H       1  UNL1        0.0230
     21 H          -2.7400    1.5210    2.0278 H       1  UNL1        0.0265
     22 H          -2.2625    0.0713    1.1121 H       1  UNL1        0.0265
     23 H          -0.0941   -0.1331    0.1116 H       1  UNL1        0.0233
     24 H          -0.3041    1.3449   -0.8579 H       1  UNL1        0.0233
     25 H           1.1102    1.1739    0.2093 H       1  UNL1        0.0233
     26 H          -2.0373    1.2514    3.6106 H       1  UNL1        0.0237
     27 H          -0.6106    1.3225    4.6725 H       1  UNL1        0.0237
     28 H          -1.0593    2.7365    3.6890 H       1  UNL1        0.0237
     29 H           0.4246   -0.7707    1.7435 H       1  UNL1        0.0705
     30 H           0.4100   -0.7216    3.5227 H       1  UNL1        0.0705
     31 H          -3.6146   -2.2439    2.6414 H       1  UNL1        0.1482
     32 H          -2.9276   -3.7764    2.6893 H       1  UNL1        0.1482
     33 H           1.7126    1.2968    3.6440 H       1  UNL1        0.0705
     34 H           1.8690    1.3841    1.8731 H       1  UNL1        0.0705
     35 H           1.5763    5.6319    2.9512 H       1  UNL1        0.1482
     36 H           3.2497    5.5985    3.0974 H       1  UNL1        0.1482
@<TRIPOS>BOND
     1     1     2    1
     2     1    18    1
     3     1    19    1
     4     1    20    1
     5     2     3    1
     6     2    21    1
     7     2    22    1
     8     3     4    1
     9     3     5    1
    10     3     6    1
    11     5    23    1
    12     5    24    1
    13     5    25    1
    14     6     7    1
    15     6     8    1
    16     6    13    1
    17     7    26    1
    18     7    27    1
    19     7    28    1
    20     8     9    1
    21     8    29    1
    22     8    30    1
    23     9    10    1
    24    10    11    2
    25    10    12   am
    26    12    31    1
    27    12    32    1
    28    13    14    1
    29    13    33    1
    30    13    34    1
    31    14    15    1
    32    15    16    2
    33    15    17   am
    34    17    35    1
    35    17    36    1
