@<TRIPOS>MOLECULE
ZINC12502147
 56 59 0 0 0
SMALL
GASTEIGER

@<TRIPOS>ATOM
      1 C          -0.2597    5.1872    1.9364 C.3     1  UNL1       -0.0528
      2 C          -1.6113    4.4709    1.9052 C.3     1  UNL1        0.0263
      3 C          -2.4359    5.0050    3.0632 C.3     1  UNL1       -0.0339
      4 C          -2.0399    4.3439    4.3888 C.3     1  UNL1        0.0107
      5 C          -2.2346    2.8494    4.2227 C.2     1  UNL1        0.1561
      6 O          -2.8501    2.1913    5.0352 O.2     1  UNL1       -0.2927
      7 C          -1.6399    2.2414    3.0276 C.2     1  UNL1       -0.0194
      8 C          -1.3534    2.9963    1.9672 C.2     1  UNL1       -0.0572
      9 C          -0.7238    2.3155    0.7656 C.3     1  UNL1       -0.0304
     10 C          -1.4808    2.7359   -0.4959 C.3     1  UNL1       -0.0432
     11 C          -1.4940    4.2646   -0.5887 C.3     1  UNL1       -0.0000
     12 H          -0.4738    4.6481   -0.5680 H       1  UNL1        0.0335
     13 C          -2.3061    4.8295    0.5857 C.3     1  UNL1        0.1492
     14 C          -2.4548    6.3452    0.4946 C.3     1  UNL1        0.0907
     15 H          -3.1173    6.6858    1.2904 H       1  UNL1        0.0625
     16 C          -3.0350    6.7796   -0.8605 C.3     1  UNL1       -0.0151
     17 C          -2.1103    6.2427   -1.9361 C.3     1  UNL1        0.0093
     18 C          -2.1839    4.6935   -1.8710 C.3     1  UNL1       -0.0266
     19 H          -3.2220    4.3613   -1.8718 H       1  UNL1        0.0311
     20 C          -1.4897    4.2774   -3.1726 C.3     1  UNL1       -0.0462
     21 C          -2.0371    5.3189   -4.1980 C.3     1  UNL1       -0.0162
     22 C          -2.4947    6.5518   -3.3794 C.3     1  UNL1        0.1315
     23 C          -3.9863    6.7334   -3.4950 C.2     1  UNL1        0.1902
     24 O          -4.6955    5.7805   -3.7121 O.2     1  UNL1       -0.2919
     25 C          -4.5927    8.1043   -3.3397 C.3     1  UNL1        0.1052
     26 O          -6.0111    8.0175   -3.4902 O.3     1  UNL1       -0.3874
     27 O          -1.8172    7.7258   -3.8317 O.3     1  UNL1       -0.3804
     28 C          -0.6763    6.7055   -1.6708 C.3     1  UNL1       -0.0562
     29 O          -1.1712    6.9491    0.6670 O.3     1  UNL1       -0.3886
     30 F          -3.5778    4.2464    0.5818 F       1  UNL1       -0.2380
     31 H          -0.4076    6.2303    2.2162 H       1  UNL1        0.0239
     32 H           0.3908    4.7042    2.6656 H       1  UNL1        0.0239
     33 H           0.2007    5.1375    0.9496 H       1  UNL1        0.0239
     34 H          -2.2796    6.0806    3.1445 H       1  UNL1        0.0279
     35 H          -3.4908    4.8144    2.8659 H       1  UNL1        0.0279
     36 H          -2.6192    4.6970    5.1235 H       1  UNL1        0.0345
     37 H          -0.9960    4.5583    4.6179 H       1  UNL1        0.0345
     38 H          -1.4343    1.1813    3.0067 H       1  UNL1        0.0652
     39 H          -0.7850    1.2338    0.8850 H       1  UNL1        0.0310
     40 H           0.3209    2.6153    0.6817 H       1  UNL1        0.0310
     41 H          -0.9843    2.3220   -1.3735 H       1  UNL1        0.0272
     42 H          -2.5043    2.3643   -0.4472 H       1  UNL1        0.0272
     43 H          -3.0760    7.8675   -0.9153 H       1  UNL1        0.0297
     44 H          -4.0343    6.3637   -0.9884 H       1  UNL1        0.0297
     45 H          -0.4075    4.3677   -3.0785 H       1  UNL1        0.0269
     46 H          -1.7701    3.2617   -3.4516 H       1  UNL1        0.0269
     47 H          -2.8842    4.8894   -4.7328 H       1  UNL1        0.0297
     48 H          -1.2563    5.6063   -4.9022 H       1  UNL1        0.0297
     49 H          -4.3751    8.4642   -2.4324 H       1  UNL1        0.0637
     50 H          -4.1865    8.7696   -4.1016 H       1  UNL1        0.0637
     51 H          -6.4685    8.8649   -3.4022 H       1  UNL1        0.2100
     52 H          -2.0228    7.9717   -4.7441 H       1  UNL1        0.2108
     53 H          -0.0551    6.4786   -2.5373 H       1  UNL1        0.0236
     54 H          -0.6690    7.7804   -1.4901 H       1  UNL1        0.0236
     55 H          -0.2831    6.1873   -0.7962 H       1  UNL1        0.0236
     56 H          -1.1866    7.9159    0.6555 H       1  UNL1        0.2099
@<TRIPOS>BOND
     1     1     2    1
     2     1    31    1
     3     1    32    1
     4     1    33    1
     5     2     8    1
     6     2    13    1
     7     2     3    1
     8     3     4    1
     9     3    34    1
    10     3    35    1
    11     4     5    1
    12     4    36    1
    13     4    37    1
    14     5     6    2
    15     5     7    1
    16     7     8    2
    17     7    38    1
    18     8     9    1
    19     9    10    1
    20     9    39    1
    21     9    40    1
    22    10    11    1
    23    10    41    1
    24    10    42    1
    25    11    12    1
    26    11    18    1
    27    11    13    1
    28    13    14    1
    29    13    30    1
    30    14    15    1
    31    14    16    1
    32    14    29    1
    33    16    17    1
    34    16    43    1
    35    16    44    1
    36    17    22    1
    37    17    18    1
    38    17    28    1
    39    18    19    1
    40    18    20    1
    41    20    21    1
    42    20    45    1
    43    20    46    1
    44    21    22    1
    45    21    47    1
    46    21    48    1
    47    22    23    1
    48    22    27    1
    49    23    24    2
    50    23    25    1
    51    25    26    1
    52    25    49    1
    53    25    50    1
    54    26    51    1
    55    27    52    1
    56    28    53    1
    57    28    54    1
    58    28    55    1
    59    29    56    1
