@<TRIPOS>MOLECULE
ZINC14593245
 81 84 0 0 0
SMALL
GASTEIGER

@<TRIPOS>ATOM
      1 C           0.7663    4.4618   -3.4703 C.3     1  UNL1       -0.0466
      2 C          -0.3450    3.6843   -4.1273 C.2     1  UNL1       -0.0876
      3 C          -0.6845    2.5074   -3.6628 C.2     1  UNL1       -0.0711
      4 C           0.0363    1.9310   -2.4715 C.3     1  UNL1       -0.0313
      5 C          -0.7456    2.2546   -1.1967 C.3     1  UNL1       -0.0465
      6 C          -0.0139    1.6693    0.0128 C.3     1  UNL1       -0.0402
      7 H           1.0129    2.0349    0.0281 H       1  UNL1        0.0301
      8 C          -0.0101    0.1424   -0.0832 C.3     1  UNL1       -0.0621
      9 C          -0.7270    2.0980    1.2967 C.3     1  UNL1       -0.0325
     10 H          -1.7598    1.7495    1.2899 H       1  UNL1        0.0309
     11 C          -0.6798    3.6408    1.4502 C.3     1  UNL1       -0.0489
     12 C           0.0004    3.9228    2.8197 C.3     1  UNL1       -0.0457
     13 C          -0.2683    2.6349    3.6019 C.3     1  UNL1       -0.0140
     14 H          -1.3003    2.6002    3.9508 H       1  UNL1        0.0351
     15 C           0.0053    1.5558    2.5140 C.3     1  UNL1       -0.0225
     16 C          -0.4166    0.2209    3.0749 C.3     1  UNL1       -0.0463
     17 C           0.5577   -0.1333    4.2118 C.3     1  UNL1       -0.0455
     18 C           0.5653    0.9358    5.3017 C.3     1  UNL1       -0.0139
     19 H          -0.3996    0.8742    5.8048 H       1  UNL1        0.0351
     20 C           0.6860    2.3205    4.7211 C.2     1  UNL1       -0.0662
     21 C           1.5350    3.2102    5.1303 C.2     1  UNL1       -0.0839
     22 C           2.5205    2.9526    6.2332 C.3     1  UNL1       -0.0308
     23 C           1.9654    1.8692    7.1656 C.3     1  UNL1       -0.0267
     24 H           1.0614    2.2328    7.6542 H       1  UNL1        0.0313
     25 C           1.6384    0.6299    6.3338 C.3     1  UNL1       -0.0220
     26 C           1.1500   -0.4951    7.2509 C.3     1  UNL1       -0.0445
     27 C           2.2315   -0.8317    8.2780 C.3     1  UNL1       -0.0261
     28 C           2.5300    0.4108    9.1205 C.3     1  UNL1        0.0581
     29 H           3.2932    0.1735    9.8616 H       1  UNL1        0.0596
     30 C           3.0347    1.5283    8.2072 C.3     1  UNL1       -0.0142
     31 H           3.9424    1.2001    7.7007 H       1  UNL1        0.0326
     32 C           3.3425    2.7705    9.0456 C.3     1  UNL1       -0.0598
     33 O           1.3371    0.8371    9.7818 O.3     1  UNL1       -0.3915
     34 C           2.9047    0.1553    5.6182 C.3     1  UNL1       -0.0587
     35 C           1.5062    1.5103    2.2202 C.3     1  UNL1       -0.0588
     36 C          -1.7957    1.7300   -4.3198 C.3     1  UNL1       -0.0256
     37 C          -1.2517    0.3933   -4.8281 C.3     1  UNL1       -0.0590
     38 C          -2.9094    1.4736   -3.3025 C.3     1  UNL1       -0.0590
     39 H           0.9042    5.4092   -3.9913 H       1  UNL1        0.0272
     40 H           0.5087    4.6540   -2.4287 H       1  UNL1        0.0272
     41 H           1.6897    3.8845   -3.5156 H       1  UNL1        0.0272
     42 H          -0.8615    4.0974   -4.9811 H       1  UNL1        0.0569
     43 H           1.0341    2.3648   -2.4056 H       1  UNL1        0.0310
     44 H           0.1168    0.8498   -2.5837 H       1  UNL1        0.0310
     45 H          -1.7434    1.8208   -1.2626 H       1  UNL1        0.0271
     46 H          -0.8261    3.3358   -1.0845 H       1  UNL1        0.0271
     47 H           0.4979   -0.1630   -0.9979 H       1  UNL1        0.0233
     48 H           0.5112   -0.2746    0.7785 H       1  UNL1        0.0233
     49 H          -1.0369   -0.2232   -0.0985 H       1  UNL1        0.0233
     50 H          -0.0927    4.0794    0.6433 H       1  UNL1        0.0268
     51 H          -1.6904    4.0490    1.4420 H       1  UNL1        0.0268
     52 H           1.0713    4.0819    2.6937 H       1  UNL1        0.0271
     53 H          -0.4607    4.7797    3.3109 H       1  UNL1        0.0271
     54 H          -0.3681   -0.5395    2.2955 H       1  UNL1        0.0271
     55 H          -1.4323    0.2868    3.4649 H       1  UNL1        0.0271
     56 H           1.5629   -0.2300    3.8014 H       1  UNL1        0.0271
     57 H           0.2597   -1.0858    4.6501 H       1  UNL1        0.0271
     58 H           1.5334    4.1807    4.6565 H       1  UNL1        0.0572
     59 H           2.6827    3.8706    6.7980 H       1  UNL1        0.0310
     60 H           3.4654    2.6162    5.8064 H       1  UNL1        0.0310
     61 H           0.2460   -0.1741    7.7685 H       1  UNL1        0.0272
     62 H           0.9297   -1.3798    6.6535 H       1  UNL1        0.0272
     63 H           3.1379   -1.1481    7.7619 H       1  UNL1        0.0290
     64 H           1.8819   -1.6355    8.9259 H       1  UNL1        0.0290
     65 H           2.4352    3.1019    9.5507 H       1  UNL1        0.0233
     66 H           4.1037    2.5288    9.7874 H       1  UNL1        0.0233
     67 H           3.7078    3.5660    8.3960 H       1  UNL1        0.0233
     68 H           0.9607    0.1760   10.3788 H       1  UNL1        0.2098
     69 H           3.2567    0.9374    4.9455 H       1  UNL1        0.0235
     70 H           3.6773   -0.0654    6.3547 H       1  UNL1        0.0235
     71 H           2.6822   -0.7444    5.0444 H       1  UNL1        0.0235
     72 H           1.8343    2.4828    1.8535 H       1  UNL1        0.0235
     73 H           2.0479    1.2647    3.1337 H       1  UNL1        0.0235
     74 H           1.7055    0.7507    1.4643 H       1  UNL1        0.0235
     75 H          -2.1937    2.3025   -5.1576 H       1  UNL1        0.0340
     76 H          -0.4583    0.5760   -5.5528 H       1  UNL1        0.0235
     77 H          -0.8538   -0.1792   -3.9903 H       1  UNL1        0.0235
     78 H          -2.0555   -0.1690   -5.3033 H       1  UNL1        0.0235
     79 H          -3.2970    2.4258   -2.9404 H       1  UNL1        0.0235
     80 H          -3.7132    0.9113   -3.7778 H       1  UNL1        0.0235
     81 H          -2.5115    0.9010   -2.4647 H       1  UNL1        0.0235
@<TRIPOS>BOND
     1     1     2    1
     2     1    39    1
     3     1    40    1
     4     1    41    1
     5     2     3    2
     6     2    42    1
     7     3     4    1
     8     3    36    1
     9     4     5    1
    10     4    43    1
    11     4    44    1
    12     5     6    1
    13     5    45    1
    14     5    46    1
    15     6     7    1
    16     6     8    1
    17     6     9    1
    18     8    47    1
    19     8    48    1
    20     8    49    1
    21     9    10    1
    22     9    15    1
    23     9    11    1
    24    11    12    1
    25    11    50    1
    26    11    51    1
    27    12    13    1
    28    12    52    1
    29    12    53    1
    30    13    14    1
    31    13    20    1
    32    13    15    1
    33    15    16    1
    34    15    35    1
    35    16    17    1
    36    16    54    1
    37    16    55    1
    38    17    18    1
    39    17    56    1
    40    17    57    1
    41    18    19    1
    42    18    25    1
    43    18    20    1
    44    20    21    2
    45    21    22    1
    46    21    58    1
    47    22    23    1
    48    22    59    1
    49    22    60    1
    50    23    24    1
    51    23    30    1
    52    23    25    1
    53    25    26    1
    54    25    34    1
    55    26    27    1
    56    26    61    1
    57    26    62    1
    58    27    28    1
    59    27    63    1
    60    27    64    1
    61    28    29    1
    62    28    30    1
    63    28    33    1
    64    30    31    1
    65    30    32    1
    66    32    65    1
    67    32    66    1
    68    32    67    1
    69    33    68    1
    70    34    69    1
    71    34    70    1
    72    34    71    1
    73    35    72    1
    74    35    73    1
    75    35    74    1
    76    36    37    1
    77    36    38    1
    78    36    75    1
    79    37    76    1
    80    37    77    1
    81    37    78    1
    82    38    79    1
    83    38    80    1
    84    38    81    1
