@<TRIPOS>MOLECULE
ZINC01530732
 50 53 0 0 0
SMALL
GASTEIGER

@<TRIPOS>ATOM
      1 C           0.5993   -1.2475   -0.9041 C.3     1  UNL1       -0.0307
      2 C           0.5100    0.2404   -1.2492 C.3     1  UNL1        0.0868
      3 O           1.8119    0.8250   -1.1772 O.3     1  UNL1       -0.4915
      4 C           1.9088    2.1477   -1.4566 C.ar    1  UNL1        0.1332
      5 C           0.7637    2.8712   -1.7954 C.ar    1  UNL1       -0.0186
      6 C           0.8147    4.1970   -2.0831 C.ar    1  UNL1       -0.0505
      7 C           2.0358    4.8955   -2.0485 C.ar    1  UNL1       -0.0169
      8 C           2.0985    6.2676   -2.3437 C.ar    1  UNL1       -0.0540
      9 C           3.2975    6.9123   -2.2996 C.ar    1  UNL1       -0.0612
     10 C           4.4656    6.2316   -1.9667 C.ar    1  UNL1       -0.0611
     11 C           4.4405    4.8999   -1.6747 C.ar    1  UNL1       -0.0532
     12 C           3.2250    4.2066   -1.7100 C.ar    1  UNL1       -0.0022
     13 C           3.1516    2.7798   -1.3984 C.ar    1  UNL1        0.0859
     14 C           4.3613    2.0266   -1.0366 C.2     1  UNL1        0.2489
     15 O           5.0246    1.4884   -1.9028 O.2     1  UNL1       -0.2700
     16 N           4.7354    1.9323    0.2548 N.am    1  UNL1       -0.2976
     17 CA          5.9408    1.1818    0.6153 C.3     1  UNL1        0.1279
     18 HA          6.2116    0.4321   -0.1281 H       1  UNL1        0.0622
     19 C           5.9260    0.6458    2.0542 C.3     1  UNL1        0.1003
     20 H           5.0197    0.8226    2.6334 H       1  UNL1        0.0640
     21 N           7.0832    1.5404    2.3031 N.am    1  UNL1       -0.2761
     22 C           7.0974    2.0595    1.0460 C.2     1  UNL1        0.2401
     23 O           7.7730    2.8978    0.4878 O.2     1  UNL1       -0.2734
     24 CA          8.2926    0.8482    2.7936 C.3     1  UNL1        0.0807
     25 HA          8.2206    0.7317    3.8750 H       1  UNL1        0.0576
     26 C           8.4247   -0.5559    2.1302 C.3     1  UNL1        0.0366
     27 S           6.6426   -1.0453    2.1916 S.3     1  UNL1       -0.1275
     28 C           9.2967   -1.4949    2.9661 C.3     1  UNL1       -0.0486
     29 C           8.9325   -0.4541    0.6906 C.3     1  UNL1       -0.0486
     30 C           9.5076    1.6749    2.4600 C.2     1  UNL1        0.0635
     31 O           9.3761    2.8019    2.0448 O.co2   1  UNL1       -0.5478
     32 H           0.9943   -1.3634    0.1052 H       1  UNL1        0.0262
     33 H          -0.3938   -1.6935   -0.9590 H       1  UNL1        0.0262
     34 H           1.2610   -1.7458   -1.6126 H       1  UNL1        0.0262
     35 H           0.1150    0.3562   -2.2585 H       1  UNL1        0.0694
     36 H          -0.1517    0.7386   -0.5407 H       1  UNL1        0.0694
     37 H          -0.1883    2.3623   -1.8300 H       1  UNL1        0.0654
     38 H          -0.0931    4.7221   -2.3413 H       1  UNL1        0.0625
     39 H           1.2007    6.8084   -2.6042 H       1  UNL1        0.0624
     40 H           3.3429    7.9672   -2.5266 H       1  UNL1        0.0618
     41 H           5.4040    6.7655   -1.9391 H       1  UNL1        0.0618
     42 H           5.3531    4.3831   -1.4172 H       1  UNL1        0.0624
     43 H           4.2065    2.3614    0.9455 H       1  UNL1        0.1499
     44 H           9.2263   -2.5070    2.5675 H       1  UNL1        0.0244
     45 H          10.3332   -1.1600    2.9261 H       1  UNL1        0.0244
     46 H           8.9518   -1.4868    4.0001 H       1  UNL1        0.0244
     47 H           8.3350    0.2765    0.1453 H       1  UNL1        0.0244
     48 H           9.9761   -0.1393    0.6949 H       1  UNL1        0.0244
     49 H           8.8484   -1.4268    0.2060 H       1  UNL1        0.0244
     50 OXT        10.7360    1.1591    2.6240 O.co2   1  UNL1       -0.5478
@<TRIPOS>UNITY_ATOM_ATTR
50 1
charge -1
@<TRIPOS>BOND
     1     1     2    1
     2     1    32    1
     3     1    33    1
     4     1    34    1
     5     2     3    1
     6     2    35    1
     7     2    36    1
     8     3     4    1
     9     4    13   ar
    10     4     5   ar
    11     5     6   ar
    12     5    37    1
    13     6     7   ar
    14     6    38    1
    15     7    12   ar
    16     7     8   ar
    17     8     9   ar
    18     8    39    1
    19     9    10   ar
    20     9    40    1
    21    10    11   ar
    22    10    41    1
    23    11    12   ar
    24    11    42    1
    25    12    13   ar
    26    13    14    1
    27    14    15    2
    28    14    16   am
    29    16    17    1
    30    16    43    1
    31    17    18    1
    32    17    22    1
    33    17    19    1
    34    19    20    1
    35    19    27    1
    36    19    21    1
    37    21    22   am
    38    21    24    1
    39    22    23    2
    40    24    25    1
    41    24    26    1
    42    24    30    1
    43    26    27    1
    44    26    28    1
    45    26    29    1
    46    28    44    1
    47    28    45    1
    48    28    46    1
    49    29    47    1
    50    29    48    1
    51    29    49    1
    52    30    31   ar
    53    30    50   ar
