@<TRIPOS>MOLECULE
ZINC11592885
 71 74 0 0 0
SMALL
GASTEIGER

@<TRIPOS>ATOM
      1 C          -4.9323   -2.7702   -1.4934 C.3     1  UNL1       -0.0562
      2 C          -3.5020   -2.6312   -0.9250 C.3     1  UNL1        0.0092
      3 C          -3.6118   -1.8533    0.3576 C.3     1  UNL1       -0.0178
      4 C          -2.2864   -1.2933    0.8815 C.3     1  UNL1        0.0600
      5 H          -1.6704   -2.1159    1.2287 H       1  UNL1        0.0596
      6 C          -1.5944   -0.4709   -0.1950 C.3     1  UNL1        0.0007
      7 H          -2.2774    0.3579   -0.4690 H       1  UNL1        0.0340
      8 C          -1.3940   -1.2988   -1.4595 C.3     1  UNL1       -0.0311
      9 H          -1.0410   -0.5868   -2.2359 H       1  UNL1        0.0308
     10 C          -2.6530   -1.9368   -1.9963 C.3     1  UNL1       -0.0292
     11 H          -3.2640   -1.1833   -2.5319 H       1  UNL1        0.0310
     12 C          -2.2669   -3.0919   -2.9569 C.3     1  UNL1       -0.0463
     13 C          -2.2118   -4.3621   -2.0883 C.3     1  UNL1       -0.0161
     14 C          -2.9401   -4.0451   -0.7676 C.3     1  UNL1        0.1326
     15 C          -4.0743   -5.0263   -0.5696 C.2     1  UNL1        0.2022
     16 O          -4.5482   -5.6012   -1.5200 O.2     1  UNL1       -0.2907
     17 C          -4.6128   -5.2863    0.8137 C.3     1  UNL1        0.1530
     18 O          -5.6885   -6.2588    0.7394 O.3     1  UNL1       -0.4568
     19 C          -6.2800   -6.6026    1.8942 C.2     1  UNL1        0.3080
     20 O          -5.9112   -6.1074    2.9328 O.2     1  UNL1       -0.2508
     21 C          -7.4042   -7.6062    1.8954 C.3     1  UNL1        0.0498
     22 C          -7.8974   -7.8178    3.3282 C.3     1  UNL1       -0.0277
     23 C          -8.3996   -6.4889    3.8963 C.3     1  UNL1       -0.0596
     24 C          -9.0387   -8.8368    3.3295 C.3     1  UNL1       -0.0596
     25 C          -6.7471   -8.3395    4.1917 C.3     1  UNL1       -0.0596
     26 O          -2.0381   -4.1312    0.3335 O.3     1  UNL1       -0.3804
     27 C          -0.2442   -2.2803   -1.2257 C.3     1  UNL1       -0.0458
     28 C           1.0273   -1.4328   -1.4021 C.3     1  UNL1       -0.0302
     29 C           0.9370   -0.2249   -0.5020 C.2     1  UNL1       -0.0559
     30 C           2.0452    0.5348   -0.4055 C.2     1  UNL1       -0.0149
     31 C           1.9703    1.7749    0.4005 C.2     1  UNL1        0.1787
     32 O           2.9459    2.2322    0.9789 O.2     1  UNL1       -0.2879
     33 C           0.6434    2.4322    0.4667 C.2     1  UNL1       -0.0180
     34 C          -0.4473    1.6638    0.3522 C.2     1  UNL1       -0.0701
     35 C          -0.2979    0.1697    0.2371 C.3     1  UNL1        0.0131
     36 C           0.0039   -0.2850    1.6658 C.3     1  UNL1       -0.0520
     37 O          -2.6485   -0.4528    1.9959 O.3     1  UNL1       -0.3914
     38 H          -5.3088   -1.7866   -1.7744 H       1  UNL1        0.0236
     39 H          -4.9133   -3.4163   -2.3711 H       1  UNL1        0.0236
     40 H          -5.5837   -3.2056   -0.7357 H       1  UNL1        0.0236
     41 H          -4.0391   -2.4986    1.1322 H       1  UNL1        0.0297
     42 H          -4.3023   -1.0160    0.2087 H       1  UNL1        0.0297
     43 H          -3.0225   -3.2033   -3.7424 H       1  UNL1        0.0269
     44 H          -1.2995   -2.9007   -3.4264 H       1  UNL1        0.0269
     45 H          -2.7214   -5.1842   -2.5996 H       1  UNL1        0.0297
     46 H          -1.1799   -4.6491   -1.8891 H       1  UNL1        0.0297
     47 H          -3.8810   -5.6424    1.3948 H       1  UNL1        0.0779
     48 H          -4.9924   -4.3562    1.2366 H       1  UNL1        0.0779
     49 H          -8.2237   -7.2346    1.2803 H       1  UNL1        0.0383
     50 H          -7.0465   -8.5530    1.4908 H       1  UNL1        0.0383
     51 H          -9.2190   -6.1173    3.2811 H       1  UNL1        0.0235
     52 H          -8.7509   -6.6397    4.9170 H       1  UNL1        0.0235
     53 H          -7.5865   -5.7630    3.8954 H       1  UNL1        0.0235
     54 H          -8.6810   -9.7836    2.9248 H       1  UNL1        0.0235
     55 H          -9.3901   -8.9876    4.3502 H       1  UNL1        0.0235
     56 H          -9.8582   -8.4652    2.7143 H       1  UNL1        0.0235
     57 H          -5.9340   -7.6135    4.1909 H       1  UNL1        0.0235
     58 H          -7.0984   -8.4902    5.2125 H       1  UNL1        0.0235
     59 H          -6.3893   -9.2862    3.7871 H       1  UNL1        0.0235
     60 H          -1.6613   -5.0120    0.4653 H       1  UNL1        0.2108
     61 H          -0.2747   -2.6782   -0.2156 H       1  UNL1        0.0271
     62 H          -0.2425   -3.0780   -1.9582 H       1  UNL1        0.0271
     63 H           1.8949   -2.0229   -1.1250 H       1  UNL1        0.0310
     64 H           1.1006   -1.1049   -2.4338 H       1  UNL1        0.0310
     65 H           2.9694    0.2419   -0.9050 H       1  UNL1        0.0655
     66 H           0.5582    3.5117    0.6017 H       1  UNL1        0.0653
     67 H          -1.4409    2.1092    0.3369 H       1  UNL1        0.0582
     68 H          -0.8228   -0.0046    2.3186 H       1  UNL1        0.0241
     69 H           0.1299   -1.3675    1.6836 H       1  UNL1        0.0241
     70 H           0.9197    0.1931    2.0135 H       1  UNL1        0.0241
     71 H          -3.0938   -0.9224    2.7144 H       1  UNL1        0.2098
@<TRIPOS>BOND
     1     1     2    1
     2     1    38    1
     3     1    39    1
     4     1    40    1
     5     2    10    1
     6     2    14    1
     7     2     3    1
     8     3     4    1
     9     3    41    1
    10     3    42    1
    11     4     5    1
    12     4     6    1
    13     4    37    1
    14     6     7    1
    15     6    35    1
    16     6     8    1
    17     8     9    1
    18     8    10    1
    19     8    27    1
    20    10    11    1
    21    10    12    1
    22    12    13    1
    23    12    43    1
    24    12    44    1
    25    13    14    1
    26    13    45    1
    27    13    46    1
    28    14    15    1
    29    14    26    1
    30    15    16    2
    31    15    17    1
    32    17    18    1
    33    17    47    1
    34    17    48    1
    35    18    19    1
    36    19    20    2
    37    19    21    1
    38    21    22    1
    39    21    49    1
    40    21    50    1
    41    22    23    1
    42    22    24    1
    43    22    25    1
    44    23    51    1
    45    23    52    1
    46    23    53    1
    47    24    54    1
    48    24    55    1
    49    24    56    1
    50    25    57    1
    51    25    58    1
    52    25    59    1
    53    26    60    1
    54    27    28    1
    55    27    61    1
    56    27    62    1
    57    28    29    1
    58    28    63    1
    59    28    64    1
    60    29    35    1
    61    29    30    2
    62    30    31    1
    63    30    65    1
    64    31    32    2
    65    31    33    1
    66    33    34    2
    67    33    66    1
    68    34    35    1
    69    34    67    1
    70    35    36    1
    71    36    68    1
    72    36    69    1
    73    36    70    1
    74    37    71    1
