@<TRIPOS>MOLECULE
ZINC01420561
 55 57 0 0 0
SMALL
GASTEIGER

@<TRIPOS>ATOM
      1 C          -8.5591   -2.2527    0.0260 C.3     1  UNL1       -0.0245
      2 C          -7.3252   -2.8900   -0.6159 C.3     1  UNL1       -0.0348
      3 C          -8.1042   -2.1959   -2.8009 C.3     1  UNL1       -0.0348
      4 C          -8.2546   -3.6089   -3.3679 C.3     1  UNL1       -0.0245
      5 C          -6.5809   -0.7857   -1.5545 C.3     1  UNL1       -0.0305
      6 C          -5.2698   -0.7958   -0.7659 C.3     1  UNL1        0.0032
      7 C          -4.8480    0.6426   -0.4594 C.3     1  UNL1        0.0173
      8 N          -3.5926    0.6330    0.2957 N.pl3   1  UNL1       -0.3260
      9 C          -3.6175    0.5904    1.6916 C.ar    1  UNL1        0.0299
     10 C          -4.8276    0.4688    2.3628 C.ar    1  UNL1       -0.0407
     11 C          -4.8482    0.4223    3.7429 C.ar    1  UNL1       -0.0600
     12 C          -3.6669    0.5071    4.4569 C.ar    1  UNL1       -0.0616
     13 C          -2.4610    0.6335    3.7920 C.ar    1  UNL1       -0.0600
     14 C          -2.4328    0.6754    2.4119 C.ar    1  UNL1       -0.0407
     15 C          -2.3111    0.6679   -0.4133 C.3     1  UNL1        0.0315
     16 C          -1.4834    1.9001    0.0045 C.3     1  UNL1       -0.0085
     17 C          -0.0436    1.4329   -0.0010 C.ar    1  UNL1       -0.0424
     18 C           1.1355    2.1592   -0.0186 C.ar    1  UNL1       -0.0583
     19 C           2.3531    1.5075   -0.0265 C.ar    1  UNL1       -0.0615
     20 C           2.3962    0.1257   -0.0170 C.ar    1  UNL1       -0.0615
     21 C           1.2214   -0.6002    0.0008 C.ar    1  UNL1       -0.0583
     22 C          -0.0006    0.0515    0.0086 C.ar    1  UNL1       -0.0424
     23 C          -1.4085   -0.5043    0.0266 C.3     1  UNL1       -0.0085
     24 H          -9.4192   -2.3842   -0.6306 H       1  UNL1        0.0281
     25 H          -8.7577   -2.7311    0.9851 H       1  UNL1        0.0281
     26 H          -8.3796   -1.1888    0.1809 H       1  UNL1        0.0281
     27 H          -7.5364   -3.9327   -0.8528 H       1  UNL1        0.0812
     28 H          -6.4865   -2.8378    0.0784 H       1  UNL1        0.0812
     29 H          -9.0237   -1.9095   -2.2902 H       1  UNL1        0.0812
     30 H          -7.9075   -1.4971   -3.6140 H       1  UNL1        0.0812
     31 H          -7.3069   -3.9297   -3.8002 H       1  UNL1        0.0281
     32 H          -8.5393   -4.2929   -2.5683 H       1  UNL1        0.0281
     33 H          -9.0249   -3.6109   -4.1391 H       1  UNL1        0.0281
     34 H          -7.3563   -0.2977   -0.9640 H       1  UNL1        0.0815
     35 H          -6.4390   -0.2418   -2.4884 H       1  UNL1        0.0815
     36 H          -4.4944   -1.2838   -1.3564 H       1  UNL1        0.0332
     37 H          -5.4117   -1.3397    0.1680 H       1  UNL1        0.0332
     38 H          -5.6234    1.1307    0.1311 H       1  UNL1        0.0466
     39 H          -4.7061    1.1865   -1.3933 H       1  UNL1        0.0466
     40 H          -5.7509    0.4070    1.8059 H       1  UNL1        0.0636
     41 H          -5.7883    0.3236    4.2653 H       1  UNL1        0.0618
     42 H          -3.6862    0.4742    5.5362 H       1  UNL1        0.0618
     43 H          -1.5403    0.6999    4.3526 H       1  UNL1        0.0618
     44 H          -1.4906    0.7738    1.8932 H       1  UNL1        0.0636
     45 H          -2.4664    0.6536   -1.4921 H       1  UNL1        0.0506
     46 H          -1.7729    2.2218    1.0049 H       1  UNL1        0.0331
     47 H          -1.6202    2.7125   -0.7093 H       1  UNL1        0.0331
     48 H           1.1027    3.2387   -0.0264 H       1  UNL1        0.0620
     49 H           3.2708    2.0768   -0.0405 H       1  UNL1        0.0618
     50 H           3.3475   -0.3855   -0.0231 H       1  UNL1        0.0618
     51 H           1.2558   -1.6797    0.0082 H       1  UNL1        0.0620
     52 H          -1.4967   -1.3336   -0.6751 H       1  UNL1        0.0331
     53 H          -1.6740   -0.8292    1.0327 H       1  UNL1        0.0331
     54 N          -6.9636   -2.1801   -1.8610 N.4     1  UNL1        0.2349
     55 H          -6.1656   -2.6569   -2.2969 H       1  UNL1        0.2033
@<TRIPOS>UNITY_ATOM_ATTR
54 1
charge 1
@<TRIPOS>BOND
     1     1     2    1
     2     1    24    1
     3     1    25    1
     4     1    26    1
     5     2    27    1
     6     2    28    1
     7     2    54    1
     8     3     4    1
     9     3    29    1
    10     3    30    1
    11     3    54    1
    12     4    31    1
    13     4    32    1
    14     4    33    1
    15     5     6    1
    16     5    34    1
    17     5    35    1
    18     5    54    1
    19     6     7    1
    20     6    36    1
    21     6    37    1
    22     7     8    1
    23     7    38    1
    24     7    39    1
    25     8     9    1
    26     8    15    1
    27     9    14   ar
    28     9    10   ar
    29    10    11   ar
    30    10    40    1
    31    11    12   ar
    32    11    41    1
    33    12    13   ar
    34    12    42    1
    35    13    14   ar
    36    13    43    1
    37    14    44    1
    38    15    23    1
    39    15    16    1
    40    15    45    1
    41    16    17    1
    42    16    46    1
    43    16    47    1
    44    17    22   ar
    45    17    18   ar
    46    18    19   ar
    47    18    48    1
    48    19    20   ar
    49    19    49    1
    50    20    21   ar
    51    20    50    1
    52    21    22   ar
    53    21    51    1
    54    22    23    1
    55    23    52    1
    56    23    53    1
    57    54    55    1
