@<TRIPOS>MOLECULE
ZINC00105196
 23 23 0 0 0
SMALL
GASTEIGER

@<TRIPOS>ATOM
      1 CZ         -5.6808   -2.7091    1.4073 C.ar    1  PHE1       -0.0617
      2 CE1        -4.5390   -3.4704    1.5738 C.ar    1  PHE1       -0.0615
      3 CD1        -3.2979   -2.8619    1.5829 C.ar    1  PHE1       -0.0584
      4 CG         -3.1985   -1.4921    1.4255 C.ar    1  PHE1       -0.0417
      5 CD2        -4.3406   -0.7302    1.2643 C.ar    1  PHE1       -0.0584
      6 CE2        -5.5814   -1.3393    1.2499 C.ar    1  PHE1       -0.0615
      7 CB         -1.8454   -0.8287    1.4359 C.3     1  PHE1        0.0209
      8 CA         -1.2926   -0.7753    0.0102 C.3     1  PHE1        0.0200
      9 HA         -2.0139   -0.2813   -0.6408 H       1  PHE1        0.0918
     10 C           0.0021   -0.0041    0.0020 C.2     1  PHE1        0.0897
     11 O           1.0565   -0.5939   -0.0112 O.co2   1  PHE1       -0.5442
     12 HZ         -6.6505   -3.1845    1.4006 H       1  PHE1        0.0618
     13 HE1        -4.6167   -4.5405    1.6971 H       1  PHE1        0.0618
     14 HD1        -2.4058   -3.4566    1.7134 H       1  PHE1        0.0620
     15 HD2        -4.2632    0.3405    1.1457 H       1  PHE1        0.0620
     16 HE2        -6.4735   -0.7446    1.1202 H       1  PHE1        0.0618
     17 HB1        -1.1655   -1.3999    2.0680 H       1  PHE1        0.0372
     18 HB2        -1.9404    0.1843    1.8269 H       1  PHE1        0.0372
     19 H1         -0.3861   -2.6207    0.1143 H       1  PHE1        0.2001
     20 H2         -1.9154   -2.6594   -0.5382 H       1  PHE1        0.2001
     21 OXT        -0.0161    1.3381    0.0094 O.co2   1  PHE1       -0.5442
     22 N          -1.0423   -2.1363   -0.4960 N.4     1  PHE1        0.2251
     23 H3         -0.6413   -2.0771   -1.4393 H       1  PHE1        0.2001
@<TRIPOS>UNITY_ATOM_ATTR
21 1
charge -1
22 1
charge 1
@<TRIPOS>BOND
     1     1     6   ar
     2     1     2   ar
     3     1    12    1
     4     2     3   ar
     5     2    13    1
     6     3     4   ar
     7     3    14    1
     8     4     5   ar
     9     4     7    1
    10     5     6   ar
    11     5    15    1
    12     6    16    1
    13     7     8    1
    14     7    17    1
    15     7    18    1
    16     8     9    1
    17     8    10    1
    18     8    22    1
    19    10    11   ar
    20    10    21   ar
    21    19    22    1
    22    20    22    1
    23    22    23    1
