@<TRIPOS>MOLECULE
ZINC03830305
 73 76 0 0 0
SMALL
GASTEIGER

@<TRIPOS>ATOM
      1 C           0.5775    1.7345    0.9570 C.3     1  UNL1       -0.0552
      2 C          -0.4276    2.2417    1.9931 C.3     1  UNL1        0.0421
      3 C          -1.7419    1.5276    1.8094 C.2     1  UNL1        0.3072
      4 O          -1.8623    0.6982    0.9391 O.2     1  UNL1       -0.2509
      5 O          -2.7788    1.8130    2.6126 O.3     1  UNL1       -0.4568
      6 C          -4.0139    1.0865    2.3780 C.3     1  UNL1        0.1542
      7 C          -5.0571    1.5365    3.3681 C.2     1  UNL1        0.2144
      8 O          -4.7619    2.3111    4.2462 O.2     1  UNL1       -0.2895
      9 C          -6.4609    1.0227    3.2628 C.3     1  UNL1        0.1821
     10 C          -7.3095    1.9587    2.3616 C.3     1  UNL1        0.0042
     11 H          -7.9656    1.3684    1.7234 H       1  UNL1        0.0341
     12 C          -8.1524    2.8454    3.3179 C.3     1  UNL1       -0.0426
     13 C          -7.5380    2.5757    4.6995 C.3     1  UNL1       -0.0253
     14 H          -6.5888    3.1546    4.7485 H       1  UNL1        0.0311
     15 C          -7.2050    1.0748    4.6119 C.3     1  UNL1        0.0208
     16 C          -6.4616    0.5648    5.8122 C.3     1  UNL1       -0.0141
     17 C          -6.6945    1.4519    7.0493 C.3     1  UNL1        0.0910
     18 H          -5.9796    2.2805    7.0390 H       1  UNL1        0.0626
     19 C          -8.1085    1.9926    7.0683 C.3     1  UNL1        0.1526
     20 C          -8.3464    2.9473    5.8962 C.3     1  UNL1        0.0003
     21 H          -7.9931    3.9497    6.2333 H       1  UNL1        0.0336
     22 C          -9.8538    3.0611    5.7017 C.3     1  UNL1       -0.0432
     23 C         -10.4088    3.8635    6.8811 C.3     1  UNL1       -0.0301
     24 C          -9.6142    3.6880    8.1440 C.2     1  UNL1       -0.0532
     25 C          -9.9154    4.5152    9.1750 C.2     1  UNL1       -0.0148
     26 C          -9.1088    4.3721   10.4095 C.2     1  UNL1        0.1787
     27 O          -9.5890    4.5613   11.5187 O.2     1  UNL1       -0.2879
     28 C          -7.6871    3.9849   10.2302 C.2     1  UNL1       -0.0180
     29 C          -7.4023    3.1887    9.1799 C.2     1  UNL1       -0.0674
     30 C          -8.5285    2.6801    8.3445 C.3     1  UNL1        0.0443
     31 C          -9.1860    1.5674    9.1667 C.3     1  UNL1       -0.0493
     32 F          -8.9940    0.9168    6.9471 F       1  UNL1       -0.2377
     33 O          -6.4506    0.6618    8.2210 O.3     1  UNL1       -0.3886
     34 C          -8.4835    0.2395    4.4045 C.3     1  UNL1       -0.0551
     35 C          -6.3918    2.8315    1.5012 C.3     1  UNL1       -0.0583
     36 O          -6.4838   -0.3302    2.7470 O.3     1  UNL1       -0.4494
     37 C          -5.7295   -1.2387    3.3854 C.2     1  UNL1        0.3078
     38 O          -5.0083   -0.8954    4.2920 O.2     1  UNL1       -0.2508
     39 C          -5.7821   -2.6867    2.9713 C.3     1  UNL1        0.0421
     40 C          -4.8348   -3.5038    3.8522 C.3     1  UNL1       -0.0552
     41 H           0.7250    0.6625    1.0882 H       1  UNL1        0.0235
     42 H           1.5281    2.2510    1.0898 H       1  UNL1        0.0235
     43 H           0.1955    1.9287   -0.0452 H       1  UNL1        0.0235
     44 H          -0.0455    2.0475    2.9953 H       1  UNL1        0.0375
     45 H          -0.5750    3.3136    1.8618 H       1  UNL1        0.0375
     46 H          -4.3359    1.2679    1.4488 H       1  UNL1        0.0780
     47 H          -3.8354    0.0180    2.4987 H       1  UNL1        0.0780
     48 H          -9.2028    2.5695    3.2863 H       1  UNL1        0.0272
     49 H          -8.0386    3.8997    3.0522 H       1  UNL1        0.0272
     50 H          -6.8114   -0.4571    6.0473 H       1  UNL1        0.0298
     51 H          -5.3878    0.4896    5.6274 H       1  UNL1        0.0298
     52 H         -10.3154    2.0734    5.6882 H       1  UNL1        0.0272
     53 H         -10.0788    3.5857    4.7700 H       1  UNL1        0.0272
     54 H         -11.4386    3.5552    7.0683 H       1  UNL1        0.0310
     55 H         -10.4113    4.9246    6.6155 H       1  UNL1        0.0310
     56 H         -10.7546    5.1978    9.1070 H       1  UNL1        0.0656
     57 H          -6.9087    4.3503   10.8936 H       1  UNL1        0.0653
     58 H          -6.3703    2.9322    8.9604 H       1  UNL1        0.0583
     59 H          -8.4619    0.7730    9.3476 H       1  UNL1        0.0242
     60 H          -9.5265    1.9725   10.1197 H       1  UNL1        0.0242
     61 H         -10.0375    1.1649    8.6180 H       1  UNL1        0.0242
     62 H          -5.5529    0.3065    8.2759 H       1  UNL1        0.2099
     63 H          -8.2138   -0.8053    4.2502 H       1  UNL1        0.0237
     64 H          -9.1198    0.3242    5.2855 H       1  UNL1        0.0237
     65 H          -9.0212    0.6087    3.5312 H       1  UNL1        0.0237
     66 H          -5.8420    2.2015    0.8021 H       1  UNL1        0.0234
     67 H          -6.9918    3.5525    0.9461 H       1  UNL1        0.0234
     68 H          -5.6884    3.3618    2.1431 H       1  UNL1        0.0234
     69 H          -6.7993   -3.0609    3.0870 H       1  UNL1        0.0375
     70 H          -5.4778   -2.7777    1.9286 H       1  UNL1        0.0375
     71 H          -3.8176   -3.1296    3.7366 H       1  UNL1        0.0235
     72 H          -5.1391   -3.4128    4.8949 H       1  UNL1        0.0235
     73 H          -4.8729   -4.5511    3.5527 H       1  UNL1        0.0235
@<TRIPOS>BOND
     1     1     2    1
     2     1    41    1
     3     1    42    1
     4     1    43    1
     5     2     3    1
     6     2    44    1
     7     2    45    1
     8     3     4    2
     9     3     5    1
    10     5     6    1
    11     6     7    1
    12     6    46    1
    13     6    47    1
    14     7     8    2
    15     7     9    1
    16     9    15    1
    17     9    10    1
    18     9    36    1
    19    10    11    1
    20    10    12    1
    21    10    35    1
    22    12    13    1
    23    12    48    1
    24    12    49    1
    25    13    14    1
    26    13    20    1
    27    13    15    1
    28    15    16    1
    29    15    34    1
    30    16    17    1
    31    16    50    1
    32    16    51    1
    33    17    18    1
    34    17    19    1
    35    17    33    1
    36    19    30    1
    37    19    20    1
    38    19    32    1
    39    20    21    1
    40    20    22    1
    41    22    23    1
    42    22    52    1
    43    22    53    1
    44    23    24    1
    45    23    54    1
    46    23    55    1
    47    24    30    1
    48    24    25    2
    49    25    26    1
    50    25    56    1
    51    26    27    2
    52    26    28    1
    53    28    29    2
    54    28    57    1
    55    29    30    1
    56    29    58    1
    57    30    31    1
    58    31    59    1
    59    31    60    1
    60    31    61    1
    61    33    62    1
    62    34    63    1
    63    34    64    1
    64    34    65    1
    65    35    66    1
    66    35    67    1
    67    35    68    1
    68    36    37    1
    69    37    38    2
    70    37    39    1
    71    39    40    1
    72    39    69    1
    73    39    70    1
    74    40    71    1
    75    40    72    1
    76    40    73    1
