@<TRIPOS>MOLECULE
ZINC03831430
 35 37 0 0 0
SMALL
GASTEIGER

@<TRIPOS>ATOM
      1 C          -1.4289   -0.5341    0.1123 C.3     1  UNL1       -0.0212
      2 C           0.0021   -0.0041    0.0020 C.3     1  UNL1       -0.0215
      3 H           0.4494   -0.3563   -0.9275 H       1  UNL1        0.0853
      4 C           0.8260   -0.5095    1.1880 C.3     1  UNL1        0.0140
      5 C           0.8467   -2.0393    1.1796 C.3     1  UNL1       -0.0394
      6 C           1.6706   -2.5447    2.3657 C.3     1  UNL1       -0.0398
      7 C           3.1016   -2.0146    2.2554 C.3     1  UNL1       -0.0473
      8 C           3.0809   -0.4848    2.2638 C.3     1  UNL1       -0.0398
      9 C           2.2570    0.0206    1.0778 C.3     1  UNL1       -0.0394
     10 C           2.4530    0.0096    3.5685 C.3     1  UNL1       -0.0473
     11 C           1.0220   -0.5205    3.6788 C.3     1  UNL1       -0.0398
     12 C           1.0428   -2.0503    3.6704 C.3     1  UNL1       -0.0473
     13 C           0.1981   -0.0151    2.4928 C.3     1  UNL1       -0.0394
     14 H          -2.0159   -0.1741   -0.7326 H       1  UNL1        0.0284
     15 H          -1.4141   -1.6240    0.1063 H       1  UNL1        0.0284
     16 H          -1.8762   -0.1819    1.0418 H       1  UNL1        0.0284
     17 H          -0.1727   -2.4169    1.2582 H       1  UNL1        0.0275
     18 H           1.2940   -2.3915    0.2501 H       1  UNL1        0.0275
     19 H           1.6854   -3.6346    2.3597 H       1  UNL1        0.0301
     20 H           3.5489   -2.3668    1.3259 H       1  UNL1        0.0271
     21 H           3.6886   -2.3747    3.1003 H       1  UNL1        0.0271
     22 H           4.1003   -0.1072    2.1852 H       1  UNL1        0.0301
     23 H           2.7043   -0.3316    0.1482 H       1  UNL1        0.0275
     24 H           2.2422    1.1105    1.0837 H       1  UNL1        0.0275
     25 H           3.0400   -0.3505    4.4134 H       1  UNL1        0.0271
     26 H           2.4382    1.0994    3.5745 H       1  UNL1        0.0271
     27 H           0.5747   -0.1683    4.6083 H       1  UNL1        0.0301
     28 H           0.0233   -2.4280    3.7490 H       1  UNL1        0.0271
     29 H           1.6297   -2.4104    4.5153 H       1  UNL1        0.0271
     30 H           0.1833    1.0748    2.4988 H       1  UNL1        0.0275
     31 H          -0.8213   -0.3927    2.5713 H       1  UNL1        0.0275
     32 H           0.9191    1.8392    0.0032 H       1  UNL1        0.1997
     33 H          -0.5563    1.8234   -0.7642 H       1  UNL1        0.1997
     34 N          -0.0294    1.4689    0.0323 N.4     1  UNL1        0.2209
     35 H          -0.4837    1.7790    0.8993 H       1  UNL1        0.1997
@<TRIPOS>UNITY_ATOM_ATTR
34 1
charge 1
@<TRIPOS>BOND
     1     1     2    1
     2     1    14    1
     3     1    15    1
     4     1    16    1
     5     2     3    1
     6     2     4    1
     7     2    34    1
     8     4     9    1
     9     4    13    1
    10     4     5    1
    11     5     6    1
    12     5    17    1
    13     5    18    1
    14     6    12    1
    15     6     7    1
    16     6    19    1
    17     7     8    1
    18     7    20    1
    19     7    21    1
    20     8     9    1
    21     8    10    1
    22     8    22    1
    23     9    23    1
    24     9    24    1
    25    10    11    1
    26    10    25    1
    27    10    26    1
    28    11    12    1
    29    11    13    1
    30    11    27    1
    31    12    28    1
    32    12    29    1
    33    13    30    1
    34    13    31    1
    35    32    34    1
    36    33    34    1
    37    34    35    1
