@<TRIPOS>MOLECULE
ZINC11592579
 46 49 0 0 0
SMALL
GASTEIGER

@<TRIPOS>ATOM
      1 C          -1.4655    3.6656   -0.0502 C.3     1  UNL1       -0.0246
      2 C          -0.7690    3.0965   -1.2878 C.3     1  UNL1        0.1138
      3 C           0.7268    3.4173   -1.2224 C.3     1  UNL1       -0.0125
      4 C           1.3237    2.7985    0.0416 C.3     1  UNL1       -0.0453
      5 C           1.1520    1.2771   -0.0011 C.3     1  UNL1       -0.0251
      6 H           1.6586    0.9054   -0.8917 H       1  UNL1        0.0315
      7 C          -0.3306    0.9309   -0.0996 C.3     1  UNL1       -0.0304
      8 H          -0.4431   -0.1502   -0.1813 H       1  UNL1        0.0308
      9 C          -0.9669    1.5957   -1.3120 C.3     1  UNL1        0.0024
     10 H          -2.0362    1.3843   -1.3126 H       1  UNL1        0.0342
     11 C          -0.3400    1.0198   -2.6011 C.3     1  UNL1       -0.0363
     12 C          -1.0746    1.6143   -3.8064 C.3     1  UNL1        0.0453
     13 C          -1.1543    3.1091   -3.6590 C.2     1  UNL1        0.3076
     14 O          -1.0506    3.7993   -4.6453 O.2     1  UNL1       -0.2508
     15 O          -1.3349    3.6976   -2.4772 O.3     1  UNL1       -0.4581
     16 C          -1.0209    1.4166    1.1807 C.3     1  UNL1       -0.0458
     17 C          -0.6215    0.4416    2.2984 C.3     1  UNL1       -0.0302
     18 C           0.8660    0.2446    2.3127 C.2     1  UNL1       -0.0560
     19 C           1.4127   -0.3981    3.3715 C.2     1  UNL1       -0.0149
     20 C           2.8745   -0.6554    3.2581 C.2     1  UNL1        0.1787
     21 O           3.6389   -0.5162    4.1946 O.2     1  UNL1       -0.2879
     22 C           3.3295   -1.0957    1.9101 C.2     1  UNL1       -0.0180
     23 C           2.7549   -0.4469    0.8745 C.2     1  UNL1       -0.0702
     24 C           1.7872    0.6521    1.2145 C.3     1  UNL1        0.0108
     25 C           2.6543    1.7581    1.8193 C.3     1  UNL1       -0.0521
     26 H          -1.8521    4.6595   -0.2756 H       1  UNL1        0.0268
     27 H          -2.2892    3.0117    0.2362 H       1  UNL1        0.0268
     28 H          -0.7514    3.7311    0.7707 H       1  UNL1        0.0268
     29 H           0.8661    4.4981   -1.1988 H       1  UNL1        0.0304
     30 H           1.2259    3.0054   -2.0995 H       1  UNL1        0.0304
     31 H           0.8118    3.1971    0.9175 H       1  UNL1        0.0270
     32 H           2.3845    3.0426    0.0988 H       1  UNL1        0.0270
     33 H          -0.4406   -0.0655   -2.6103 H       1  UNL1        0.0274
     34 H           0.7151    1.2897   -2.6462 H       1  UNL1        0.0274
     35 H          -2.0816    1.2003   -3.8584 H       1  UNL1        0.0378
     36 H          -0.5331    1.3677   -4.7196 H       1  UNL1        0.0378
     37 H          -0.6932    2.4290    1.4169 H       1  UNL1        0.0271
     38 H          -2.1027    1.3980    1.0481 H       1  UNL1        0.0271
     39 H          -1.1102   -0.5209    2.1468 H       1  UNL1        0.0310
     40 H          -0.9382    0.8589    3.2543 H       1  UNL1        0.0310
     41 H           0.8335   -0.7003    4.2315 H       1  UNL1        0.0655
     42 H           4.0566   -1.8821    1.7713 H       1  UNL1        0.0653
     43 H           2.9878   -0.6990   -0.1496 H       1  UNL1        0.0582
     44 H           2.0258    2.6080    2.0853 H       1  UNL1        0.0241
     45 H           3.1531    1.3815    2.7123 H       1  UNL1        0.0241
     46 H           3.4018    2.0729    1.0911 H       1  UNL1        0.0241
@<TRIPOS>BOND
     1     1     2    1
     2     1    26    1
     3     1    27    1
     4     1    28    1
     5     2     9    1
     6     2    15    1
     7     2     3    1
     8     3     4    1
     9     3    29    1
    10     3    30    1
    11     4     5    1
    12     4    31    1
    13     4    32    1
    14     5     6    1
    15     5    24    1
    16     5     7    1
    17     7     8    1
    18     7     9    1
    19     7    16    1
    20     9    10    1
    21     9    11    1
    22    11    12    1
    23    11    33    1
    24    11    34    1
    25    12    13    1
    26    12    35    1
    27    12    36    1
    28    13    14    2
    29    13    15    1
    30    16    17    1
    31    16    37    1
    32    16    38    1
    33    17    18    1
    34    17    39    1
    35    17    40    1
    36    18    24    1
    37    18    19    2
    38    19    20    1
    39    19    41    1
    40    20    21    2
    41    20    22    1
    42    22    23    2
    43    22    42    1
    44    23    24    1
    45    23    43    1
    46    24    25    1
    47    25    44    1
    48    25    45    1
    49    25    46    1
