@<TRIPOS>MOLECULE
ZINC00020248
 46 48 0 0 0
SMALL
GASTEIGER

@<TRIPOS>ATOM
      1 C           0.7660   -3.7921    2.1518 C.3     1  UNL1       -0.0433
      2 C          -0.6176   -5.7329    1.7262 C.3     1  UNL1       -0.0433
      3 C          -1.5885   -3.5158    1.6593 C.3     1  UNL1       -0.0309
      4 C          -1.3947   -2.1106    1.0860 C.3     1  UNL1        0.0036
      5 C          -2.6486   -1.2746    1.3503 C.3     1  UNL1        0.0221
      6 N          -2.4632    0.0709    0.8014 N.pl3   1  UNL1       -0.2994
      7 C          -2.8504    0.3090   -0.5119 C.ar    1  UNL1        0.0372
      8 C          -4.1071   -0.1939   -0.8737 C.ar    1  UNL1       -0.0401
      9 C          -4.6200    0.0239   -2.1315 C.ar    1  UNL1       -0.0600
     10 C          -3.8801    0.7486   -3.0486 C.ar    1  UNL1       -0.0614
     11 C          -2.6388    1.2283   -2.7010 C.ar    1  UNL1       -0.0568
     12 C          -2.0996    1.0046   -1.4304 C.ar    1  UNL1       -0.0257
     13 C          -0.7153    1.5721   -1.2353 C.3     1  UNL1       -0.0219
     14 C          -0.0127    1.0858    0.0080 C.3     1  UNL1       -0.0219
     15 C          -0.6868    1.5555    1.2611 C.ar    1  UNL1       -0.0256
     16 C          -1.9070    1.0499    1.6201 C.ar    1  UNL1        0.0385
     17 C          -2.5599    1.4947    2.7607 C.ar    1  UNL1       -0.0217
     18 C          -1.9521    2.4525    3.5550 C.ar    1  UNL1        0.0428
     19 C          -0.7093    2.9512    3.2056 C.ar    1  UNL1       -0.0430
     20 C          -0.0720    2.5075    2.0610 C.ar    1  UNL1       -0.0554
     21 CL         -2.7477    3.0264    4.9872 Cl      1  UNL1       -0.0835
     22 H           0.5484   -3.8164    3.2196 H       1  UNL1        0.0777
     23 H           1.6438   -4.4047    1.9458 H       1  UNL1        0.0777
     24 H           0.9597   -2.7646    1.8438 H       1  UNL1        0.0777
     25 H          -1.4299   -6.1164    1.1087 H       1  UNL1        0.0777
     26 H           0.2894   -6.3044    1.5292 H       1  UNL1        0.0777
     27 H          -0.8853   -5.8276    2.7785 H       1  UNL1        0.0777
     28 H          -1.7611   -3.4494    2.7335 H       1  UNL1        0.0815
     29 H          -2.4471   -3.9878    1.1818 H       1  UNL1        0.0815
     30 H          -1.2221   -2.1770    0.0118 H       1  UNL1        0.0332
     31 H          -0.5361   -1.6386    1.5635 H       1  UNL1        0.0332
     32 H          -2.8213   -1.2082    2.4245 H       1  UNL1        0.0470
     33 H          -3.5073   -1.7466    0.8728 H       1  UNL1        0.0470
     34 H          -4.6808   -0.7606   -0.1553 H       1  UNL1        0.0636
     35 H          -5.5905   -0.3667   -2.4000 H       1  UNL1        0.0618
     36 H          -4.2764    0.9374   -4.0353 H       1  UNL1        0.0618
     37 H          -2.0679    1.7901   -3.4255 H       1  UNL1        0.0621
     38 H          -0.7904    2.6585   -1.1877 H       1  UNL1        0.0317
     39 H          -0.1095    1.3060   -2.1015 H       1  UNL1        0.0317
     40 H           0.0021   -0.0041    0.0020 H       1  UNL1        0.0317
     41 H           1.0137    1.4527    0.0002 H       1  UNL1        0.0317
     42 H          -3.5295    1.0994    3.0254 H       1  UNL1        0.0651
     43 H          -0.2339    3.6923    3.8310 H       1  UNL1        0.0632
     44 H           0.8971    2.9009    1.7916 H       1  UNL1        0.0621
     45 N          -0.3785   -4.3166    1.3775 N.4     1  UNL1        0.2309
     46 H          -0.1614   -4.2517    0.3761 H       1  UNL1        0.2028
@<TRIPOS>UNITY_ATOM_ATTR
45 1
charge 1
@<TRIPOS>BOND
     1     1    22    1
     2     1    23    1
     3     1    24    1
     4     1    45    1
     5     2    25    1
     6     2    26    1
     7     2    27    1
     8     2    45    1
     9     3     4    1
    10     3    28    1
    11     3    29    1
    12     3    45    1
    13     4     5    1
    14     4    30    1
    15     4    31    1
    16     5     6    1
    17     5    32    1
    18     5    33    1
    19     6    16    1
    20     6     7    1
    21     7    12   ar
    22     7     8   ar
    23     8     9   ar
    24     8    34    1
    25     9    10   ar
    26     9    35    1
    27    10    11   ar
    28    10    36    1
    29    11    12   ar
    30    11    37    1
    31    12    13    1
    32    13    14    1
    33    13    38    1
    34    13    39    1
    35    14    15    1
    36    14    40    1
    37    14    41    1
    38    15    20   ar
    39    15    16   ar
    40    16    17   ar
    41    17    18   ar
    42    17    42    1
    43    18    19   ar
    44    18    21    1
    45    19    20   ar
    46    19    43    1
    47    20    44    1
    48    45    46    1
