@<TRIPOS>MOLECULE
ZINC03831394
 64 67 0 0 0
SMALL
GASTEIGER

@<TRIPOS>ATOM
      1 C          -1.5147    4.7308    7.1029 C.3     1  UNL1       -0.0510
      2 C          -2.1680    3.9489    5.9615 C.3     1  UNL1        0.0108
      3 N          -1.9853    4.6794    4.7002 N.3     1  UNL1       -0.2409
      4 N          -2.5580    4.0074    3.6579 N.am    1  UNL1       -0.2507
      5 C          -2.4972    4.5181    2.4121 C.2     1  UNL1        0.2309
      6 O          -1.8565    5.5258    2.2004 O.2     1  UNL1       -0.2742
      7 C          -3.2253    3.8368    1.2822 C.3     1  UNL1        0.0551
      8 H          -3.3962    2.7901    1.5337 H       1  UNL1        0.0408
      9 C          -4.5679    4.5358    1.0369 C.3     1  UNL1        0.0243
     10 H          -4.3950    5.5229    0.6082 H       1  UNL1        0.0359
     11 C          -5.3819    3.6864    0.0631 C.3     1  UNL1        0.0862
     12 H          -6.2696    4.2406   -0.2418 H       1  UNL1        0.0647
     13 C          -4.5649    3.3485   -1.1569 C.ar    1  UNL1       -0.0113
     14 C          -5.2443    2.9111   -2.2873 C.ar    1  UNL1       -0.0102
     15 C          -4.5552    2.5797   -3.4387 C.ar    1  UNL1        0.1666
     16 C          -3.1663    2.6864   -3.4637 C.ar    1  UNL1        0.1665
     17 C          -2.4952    3.1244   -2.3377 C.ar    1  UNL1       -0.0120
     18 C          -3.1925    3.4569   -1.1827 C.ar    1  UNL1       -0.0299
     19 C          -2.3942    3.9299    0.0042 C.3     1  UNL1        0.0214
     20 H          -2.0943    4.9657   -0.1548 H       1  UNL1        0.0405
     21 C          -1.1631    3.0727    0.1486 C.ar    1  UNL1       -0.0321
     22 C          -1.2911    1.7135    0.3650 C.ar    1  UNL1       -0.0123
     23 C          -0.1609    0.9221    0.5032 C.ar    1  UNL1        0.1654
     24 C           1.1019    1.4956    0.4132 C.ar    1  UNL1        0.2035
     25 C           1.2262    2.8617    0.1903 C.ar    1  UNL1        0.1654
     26 C           0.0910    3.6470    0.0585 C.ar    1  UNL1       -0.0123
     27 O           2.4597    3.4275    0.1011 O.3     1  UNL1       -0.4913
     28 C           2.5118    4.8369   -0.1291 C.3     1  UNL1        0.0790
     29 O           2.2136    0.7215    0.5436 O.3     1  UNL1       -0.4885
     30 C           2.7476    0.1467   -0.6508 C.3     1  UNL1        0.0791
     31 O          -0.2879   -0.4143    0.7208 O.3     1  UNL1       -0.4913
     32 C          -1.6161   -0.9351    0.8019 C.3     1  UNL1        0.0790
     33 O          -2.7218    2.3055   -4.6969 O.3     1  UNL1       -0.4526
     34 C          -3.8129    1.5777   -5.2910 C.3     1  UNL1        0.2332
     35 O          -4.9801    2.1329   -4.6565 O.3     1  UNL1       -0.4526
     36 O          -5.7812    2.4776    0.7123 O.3     1  UNL1       -0.3868
     37 C          -5.3261    4.6737    2.3587 C.3     1  UNL1        0.0504
     38 O          -6.5317    5.4095    2.1416 O.3     1  UNL1       -0.3946
     39 H          -1.9786    5.7140    7.1820 H       1  UNL1        0.0242
     40 H          -1.6503    4.1887    8.0389 H       1  UNL1        0.0242
     41 H          -0.4498    4.8467    6.9011 H       1  UNL1        0.0242
     42 H          -3.2328    3.8331    6.1633 H       1  UNL1        0.0438
     43 H          -1.7041    2.9657    5.8825 H       1  UNL1        0.0438
     44 H          -1.0078    4.8562    4.5230 H       1  UNL1        0.1442
     45 H          -3.0085    3.1627    3.8144 H       1  UNL1        0.1689
     46 H          -6.3210    2.8289   -2.2660 H       1  UNL1        0.0659
     47 H          -1.4186    3.2083   -2.3554 H       1  UNL1        0.0658
     48 H          -2.2728    1.2679    0.4303 H       1  UNL1        0.0658
     49 H           0.1868    4.7086   -0.1151 H       1  UNL1        0.0658
     50 H           3.5520    5.1587   -0.1790 H       1  UNL1        0.0660
     51 H           2.0139    5.0700   -1.0703 H       1  UNL1        0.0660
     52 H           2.0093    5.3571    0.6863 H       1  UNL1        0.0660
     53 H           1.9967   -0.4945   -1.1126 H       1  UNL1        0.0660
     54 H           3.0234    0.9409   -1.3444 H       1  UNL1        0.0660
     55 H           3.6299   -0.4449   -0.4063 H       1  UNL1        0.0660
     56 H          -2.1459   -0.4529    1.6235 H       1  UNL1        0.0660
     57 H          -2.1409   -0.7394   -0.1332 H       1  UNL1        0.0660
     58 H          -1.5749   -2.0101    0.9774 H       1  UNL1        0.0660
     59 H          -3.7276    0.5133   -5.0720 H       1  UNL1        0.1166
     60 H          -3.8464    1.7446   -6.3676 H       1  UNL1        0.1166
     61 H          -6.3036    1.8855    0.1541 H       1  UNL1        0.2102
     62 H          -5.5692    3.6832    2.7431 H       1  UNL1        0.0561
     63 H          -4.7036    5.2012    3.0813 H       1  UNL1        0.0561
     64 H          -7.0644    5.5357    2.9388 H       1  UNL1        0.2094
@<TRIPOS>BOND
     1     1     2    1
     2     1    39    1
     3     1    40    1
     4     1    41    1
     5     2     3    1
     6     2    42    1
     7     2    43    1
     8     3     4    1
     9     3    44    1
    10     4     5   am
    11     4    45    1
    12     5     6    2
    13     5     7    1
    14     7     8    1
    15     7    19    1
    16     7     9    1
    17     9    10    1
    18     9    11    1
    19     9    37    1
    20    11    12    1
    21    11    13    1
    22    11    36    1
    23    13    18   ar
    24    13    14   ar
    25    14    15   ar
    26    14    46    1
    27    15    35    1
    28    15    16   ar
    29    16    17   ar
    30    16    33    1
    31    17    18   ar
    32    17    47    1
    33    18    19    1
    34    19    20    1
    35    19    21    1
    36    21    26   ar
    37    21    22   ar
    38    22    23   ar
    39    22    48    1
    40    23    24   ar
    41    23    31    1
    42    24    25   ar
    43    24    29    1
    44    25    26   ar
    45    25    27    1
    46    26    49    1
    47    27    28    1
    48    28    50    1
    49    28    51    1
    50    28    52    1
    51    29    30    1
    52    30    53    1
    53    30    54    1
    54    30    55    1
    55    31    32    1
    56    32    56    1
    57    32    57    1
    58    32    58    1
    59    33    34    1
    60    34    35    1
    61    34    59    1
    62    34    60    1
    63    36    61    1
    64    37    38    1
    65    37    62    1
    66    37    63    1
    67    38    64    1
