@<TRIPOS>MOLECULE
ZINC03831490
 41 43 0 0 0
SMALL
GASTEIGER

@<TRIPOS>ATOM
      1 C          -1.2206    1.7609    0.0173 C.ar    1  UNL1       -0.0570
      2 C          -0.0126    1.0758    0.0080 C.ar    1  UNL1       -0.0435
      3 C           1.1691    1.7890    0.0005 C.ar    1  UNL1        0.0297
      4 N           1.1632    3.1087    0.0072 N.ar    1  UNL1       -0.2390
      5 C           0.0327    3.7978    0.0212 C.ar    1  UNL1        0.1377
      6 C          -1.1952    3.1436    0.0294 C.ar    1  UNL1       -0.0204
      7 N           0.0730    5.1872    0.0283 N.pl3   1  UNL1       -0.1995
      8 S           1.5305    5.9734    0.0192 S.O2    1  UNL1        0.0735
      9 O           1.2415    7.3646    0.0022 O.2     1  UNL1       -0.1499
     10 O           2.3226    5.3722    1.0343 O.2     1  UNL1       -0.1499
     11 C           2.3127    5.6028   -1.5156 C.ar    1  UNL1        0.1087
     12 C           3.1439    4.5009   -1.6163 C.ar    1  UNL1       -0.0330
     13 C           3.7551    4.2014   -2.8158 C.ar    1  UNL1       -0.0327
     14 C           3.5423    5.0202   -3.9281 C.ar    1  UNL1        0.0863
     15 C           2.7062    6.1344   -3.8172 C.ar    1  UNL1       -0.0327
     16 C           2.0973    6.4182   -2.6127 C.ar    1  UNL1       -0.0330
     17 N           4.1489    4.7324   -5.1190 N.2     1  UNL1       -0.1493
     18 N           4.9202    3.7031   -5.2179 N.2     1  UNL1       -0.1493
     19 C           5.5261    3.4156   -6.4075 C.ar    1  UNL1        0.0870
     20 C           5.3102    4.2384   -7.5207 C.ar    1  UNL1       -0.0311
     21 C           5.9185    3.9530   -8.7219 C.ar    1  UNL1       -0.0175
     22 C           6.7514    2.8473   -8.8398 C.ar    1  UNL1        0.1258
     23 C           6.9755    2.0154   -7.7315 C.ar    1  UNL1        0.0408
     24 C           6.3642    2.3065   -6.5131 C.ar    1  UNL1       -0.0222
     25 C           7.8594    0.8417   -7.8541 C.2     1  UNL1        0.0752
     26 O           8.3954    0.5930   -8.9158 O.co2   1  UNL1       -0.5445
     27 O           7.3482    2.5720  -10.0252 O.3     1  UNL1       -0.5061
     28 H          -2.1588    1.2259    0.0192 H       1  UNL1        0.0619
     29 H           0.0021   -0.0041    0.0020 H       1  UNL1        0.0633
     30 H           2.1107    1.2603   -0.0113 H       1  UNL1        0.0830
     31 H          -2.1160    3.7079    0.0405 H       1  UNL1        0.0652
     32 H          -0.7526    5.6963    0.0386 H       1  UNL1        0.1752
     33 H           3.3112    3.8717   -0.7546 H       1  UNL1        0.0638
     34 H           4.4000    3.3386   -2.8942 H       1  UNL1        0.0640
     35 H           2.5375    6.7719   -4.6725 H       1  UNL1        0.0640
     36 H           1.4506    7.2788   -2.5256 H       1  UNL1        0.0638
     37 H           4.6640    5.0995   -7.4361 H       1  UNL1        0.0640
     38 H           5.7479    4.5914   -9.5762 H       1  UNL1        0.0655
     39 H           6.5359    1.6731   -5.6554 H       1  UNL1        0.0647
     40 H           8.2137    2.9888  -10.1359 H       1  UNL1        0.2922
     41 O           8.0727    0.0448   -6.7887 O.co2   1  UNL1       -0.5445
@<TRIPOS>UNITY_ATOM_ATTR
41 1
charge -1
@<TRIPOS>BOND
     1     1     6   ar
     2     1     2   ar
     3     1    28    1
     4     2     3   ar
     5     2    29    1
     6     3     4   ar
     7     3    30    1
     8     4     5   ar
     9     5     6   ar
    10     5     7    1
    11     6    31    1
    12     7     8    1
    13     7    32    1
    14     8     9    2
    15     8    10    2
    16     8    11    1
    17    11    16   ar
    18    11    12   ar
    19    12    13   ar
    20    12    33    1
    21    13    14   ar
    22    13    34    1
    23    14    15   ar
    24    14    17    1
    25    15    16   ar
    26    15    35    1
    27    16    36    1
    28    17    18    2
    29    18    19    1
    30    19    24   ar
    31    19    20   ar
    32    20    21   ar
    33    20    37    1
    34    21    22   ar
    35    21    38    1
    36    22    23   ar
    37    22    27    1
    38    23    24   ar
    39    23    25    1
    40    24    39    1
    41    25    26   ar
    42    25    41   ar
    43    27    40    1
