@<TRIPOS>MOLECULE
ZINC08552284
 56 59 0 0 0
SMALL
GASTEIGER

@<TRIPOS>ATOM
      1 C           4.3688    4.8065    0.3914 C.3     1  UNL1       -0.0058
      2 C           2.9448    4.3260    0.2804 C.2     1  UNL1        0.1339
      3 O           2.2954    4.1265    1.2788 O.2     1  UNL1       -0.2974
      4 C           2.3329    4.0952   -1.0725 C.3     1  UNL1        0.0233
      5 H           3.0373    3.7771   -1.7070 H       1  UNL1        0.0383
      6 C           1.6773    5.4008   -1.5913 C.3     1  UNL1       -0.0427
      7 C           0.1475    5.1470   -1.6215 C.3     1  UNL1       -0.0488
      8 C          -0.0294    3.9593   -0.6582 C.3     1  UNL1       -0.0311
      9 H           0.0556    4.3323    0.3668 H       1  UNL1        0.0309
     10 C           1.1901    3.0799   -1.0191 C.3     1  UNL1       -0.0128
     11 C           1.3027    1.9666    0.0002 C.3     1  UNL1        0.0124
     12 C          -0.0144    1.2112    0.0087 C.2     1  UNL1        0.1378
     13 O           0.0021   -0.0041    0.0020 O.2     1  UNL1       -0.2971
     14 C          -1.3421    1.9316    0.0190 C.3     1  UNL1        0.0262
     15 H          -2.0378    1.3544   -0.4085 H       1  UNL1        0.0385
     16 C          -1.3115    3.1871   -0.8331 C.3     1  UNL1       -0.0277
     17 H          -1.3687    2.8588   -1.8944 H       1  UNL1        0.0310
     18 C          -2.5347    4.0775   -0.6495 C.3     1  UNL1       -0.0490
     19 C          -2.8185    4.3348    0.8240 C.3     1  UNL1       -0.0493
     20 C          -3.0779    2.9850    1.4906 C.3     1  UNL1       -0.0326
     21 H          -3.8572    2.4613    0.9171 H       1  UNL1        0.0307
     22 C          -1.8086    2.1371    1.4567 C.3     1  UNL1       -0.0193
     23 C          -2.1446    0.7607    2.0571 C.3     1  UNL1       -0.0444
     24 C          -2.6592    0.9064    3.4847 C.3     1  UNL1       -0.0263
     25 C          -3.8875    1.8113    3.5376 C.3     1  UNL1        0.0555
     26 H          -4.1850    1.9535    4.5803 H       1  UNL1        0.0593
     27 C          -3.5710    3.1744    2.9202 C.3     1  UNL1       -0.0235
     28 O          -4.9669    1.2026    2.8257 O.3     1  UNL1       -0.3918
     29 C          -0.7135    2.7778    2.3056 C.3     1  UNL1       -0.0587
     30 C           1.0404    2.4639   -2.4179 C.3     1  UNL1       -0.0583
     31 H           4.3835    5.8064    0.3993 H       1  UNL1        0.0306
     32 H           4.8087    4.4293    1.3147 H       1  UNL1        0.0306
     33 H           4.9429    4.4412   -0.4602 H       1  UNL1        0.0306
     34 H           2.0418    5.6299   -2.5919 H       1  UNL1        0.0272
     35 H           1.9060    6.2236   -0.9128 H       1  UNL1        0.0272
     36 H          -0.1955    4.8986   -2.6212 H       1  UNL1        0.0268
     37 H          -0.3904    6.0186   -1.2404 H       1  UNL1        0.0268
     38 H           1.4965    2.3570    0.9002 H       1  UNL1        0.0347
     39 H           2.1081    1.2809   -0.2949 H       1  UNL1        0.0347
     40 H          -2.3677    5.0280   -1.1571 H       1  UNL1        0.0268
     41 H          -3.4009    3.5860   -1.0987 H       1  UNL1        0.0268
     42 H          -3.7140    4.9578    0.9116 H       1  UNL1        0.0268
     43 H          -1.9835    4.8505    1.2843 H       1  UNL1        0.0268
     44 H          -2.9035    0.2817    1.4376 H       1  UNL1        0.0272
     45 H          -1.2422    0.1470    2.0558 H       1  UNL1        0.0272
     46 H          -1.8816    1.2971    4.1388 H       1  UNL1        0.0290
     47 H          -2.9408   -0.0873    3.8598 H       1  UNL1        0.0290
     48 H          -2.8362    3.6962    3.5258 H       1  UNL1        0.0293
     49 H          -4.4895    3.7735    2.9044 H       1  UNL1        0.0293
     50 H          -5.2208    0.3332    3.1646 H       1  UNL1        0.2098
     51 H          -0.4476    3.7473    1.8843 H       1  UNL1        0.0235
     52 H          -1.0755    2.9117    3.3250 H       1  UNL1        0.0235
     53 H           0.1646    2.1321    2.3137 H       1  UNL1        0.0235
     54 H           0.1366    1.8555   -2.4521 H       1  UNL1        0.0235
     55 H           0.9711    3.2594   -3.1598 H       1  UNL1        0.0235
     56 H           1.9071    1.8394   -2.6346 H       1  UNL1        0.0235
@<TRIPOS>BOND
     1     1     2    1
     2     1    31    1
     3     1    32    1
     4     1    33    1
     5     2     3    2
     6     2     4    1
     7     4     5    1
     8     4    10    1
     9     4     6    1
    10     6     7    1
    11     6    34    1
    12     6    35    1
    13     7     8    1
    14     7    36    1
    15     7    37    1
    16     8     9    1
    17     8    16    1
    18     8    10    1
    19    10    11    1
    20    10    30    1
    21    11    12    1
    22    11    38    1
    23    11    39    1
    24    12    13    2
    25    12    14    1
    26    14    15    1
    27    14    22    1
    28    14    16    1
    29    16    17    1
    30    16    18    1
    31    18    19    1
    32    18    40    1
    33    18    41    1
    34    19    20    1
    35    19    42    1
    36    19    43    1
    37    20    21    1
    38    20    27    1
    39    20    22    1
    40    22    23    1
    41    22    29    1
    42    23    24    1
    43    23    44    1
    44    23    45    1
    45    24    25    1
    46    24    46    1
    47    24    47    1
    48    25    26    1
    49    25    27    1
    50    25    28    1
    51    27    48    1
    52    27    49    1
    53    28    50    1
    54    29    51    1
    55    29    52    1
    56    29    53    1
    57    30    54    1
    58    30    55    1
    59    30    56    1
