@<TRIPOS>MOLECULE
ZINC03830599
 54 57 0 0 0
SMALL
GASTEIGER

@<TRIPOS>ATOM
      1 C           0.4663    3.8127   -1.2585 C.3     1  UNL1       -0.0552
      2 C          -0.8704    3.0703   -1.2419 C.3     1  UNL1       -0.0005
      3 C          -0.6583    1.5653   -1.3350 C.3     1  UNL1       -0.0363
      4 C           0.1297    1.0632   -0.1223 C.3     1  UNL1        0.0107
      5 C          -0.5363    1.5233    1.1479 C.2     1  UNL1        0.1561
      6 O          -0.3354    0.9260    2.1869 O.2     1  UNL1       -0.2927
      7 C          -1.4210    2.6857    1.1404 C.2     1  UNL1       -0.0194
      8 C          -1.6108    3.3986    0.0372 C.2     1  UNL1       -0.0597
      9 C          -2.5815    4.5556    0.0252 C.3     1  UNL1       -0.0305
     10 C          -3.6984    4.2653   -0.9805 C.3     1  UNL1       -0.0456
     11 C          -3.2039    3.2933   -2.0474 C.3     1  UNL1       -0.0270
     12 H          -3.2175    2.2991   -1.5637 H       1  UNL1        0.0311
     13 C          -1.7501    3.5701   -2.3985 C.3     1  UNL1        0.0297
     14 H          -1.6454    4.5601   -2.4932 H       1  UNL1        0.0389
     15 C          -1.3232    2.9815   -3.7100 C.2     1  UNL1        0.1381
     16 O          -0.1829    2.5828   -3.8826 O.2     1  UNL1       -0.2971
     17 C          -2.3070    2.8787   -4.8717 C.3     1  UNL1        0.0148
     18 C          -3.5078    3.7330   -4.5297 C.3     1  UNL1        0.0134
     19 C          -4.1212    3.1968   -3.2209 C.3     1  UNL1       -0.0286
     20 H          -4.3594    2.1247   -3.3694 H       1  UNL1        0.0310
     21 C          -5.4542    3.9507   -3.1486 C.3     1  UNL1       -0.0463
     22 C          -5.9365    3.9617   -4.6243 C.3     1  UNL1       -0.0162
     23 C          -4.6950    3.6568   -5.5004 C.3     1  UNL1        0.1318
     24 C          -4.8209    2.2989   -6.1287 C.2     1  UNL1        0.1902
     25 O          -4.4576    1.3182   -5.5250 O.2     1  UNL1       -0.2919
     26 C          -5.4006    2.1599   -7.5128 C.3     1  UNL1        0.1052
     27 O          -5.4150    0.7808   -7.8869 O.3     1  UNL1       -0.3874
     28 O          -4.5543    4.6597   -6.5107 O.3     1  UNL1       -0.3804
     29 C          -3.1105    5.2083   -4.4143 C.3     1  UNL1       -0.0559
     30 H           0.9940    3.5903   -2.1860 H       1  UNL1        0.0238
     31 H           0.2868    4.8857   -1.1909 H       1  UNL1        0.0238
     32 H           1.0710    3.4913   -0.4104 H       1  UNL1        0.0238
     33 H          -0.1058    1.3176   -2.2433 H       1  UNL1        0.0278
     34 H          -1.6275    1.0591   -1.3662 H       1  UNL1        0.0278
     35 H           0.1490    0.0634   -0.1280 H       1  UNL1        0.0345
     36 H           1.1552    1.4250   -0.1585 H       1  UNL1        0.0345
     37 H          -1.9462    2.9577    2.0445 H       1  UNL1        0.0652
     38 H          -2.0619    5.4680   -0.2638 H       1  UNL1        0.0310
     39 H          -3.0126    4.6800    1.0183 H       1  UNL1        0.0310
     40 H          -4.0025    5.1964   -1.4525 H       1  UNL1        0.0271
     41 H          -4.5447    3.8216   -0.4592 H       1  UNL1        0.0271
     42 H          -2.5809    1.9246   -4.9931 H       1  UNL1        0.0348
     43 H          -1.8312    3.2400   -5.7899 H       1  UNL1        0.0348
     44 H          -6.1656    3.4057   -2.5225 H       1  UNL1        0.0269
     45 H          -5.3242    4.9630   -2.7755 H       1  UNL1        0.0269
     46 H          -6.3394    4.9416   -4.8782 H       1  UNL1        0.0297
     47 H          -6.6951    3.1943   -4.7752 H       1  UNL1        0.0297
     48 H          -6.3346    2.5171   -7.5204 H       1  UNL1        0.0637
     49 H          -4.7908    2.7219   -8.2202 H       1  UNL1        0.0637
     50 H          -5.7763    0.6163   -8.7687 H       1  UNL1        0.2100
     51 H          -5.2717    4.6682   -7.1591 H       1  UNL1        0.2108
     52 H          -2.4676    5.3444   -3.5447 H       1  UNL1        0.0236
     53 H          -2.5743    5.5116   -5.3135 H       1  UNL1        0.0236
     54 H          -4.0069    5.8183   -4.3026 H       1  UNL1        0.0236
@<TRIPOS>BOND
     1     1     2    1
     2     1    30    1
     3     1    31    1
     4     1    32    1
     5     2     8    1
     6     2    13    1
     7     2     3    1
     8     3     4    1
     9     3    33    1
    10     3    34    1
    11     4     5    1
    12     4    35    1
    13     4    36    1
    14     5     6    2
    15     5     7    1
    16     7     8    2
    17     7    37    1
    18     8     9    1
    19     9    10    1
    20     9    38    1
    21     9    39    1
    22    10    11    1
    23    10    40    1
    24    10    41    1
    25    11    12    1
    26    11    19    1
    27    11    13    1
    28    13    14    1
    29    13    15    1
    30    15    16    2
    31    15    17    1
    32    17    18    1
    33    17    42    1
    34    17    43    1
    35    18    23    1
    36    18    19    1
    37    18    29    1
    38    19    20    1
    39    19    21    1
    40    21    22    1
    41    21    44    1
    42    21    45    1
    43    22    23    1
    44    22    46    1
    45    22    47    1
    46    23    24    1
    47    23    28    1
    48    24    25    2
    49    24    26    1
    50    26    27    1
    51    26    48    1
    52    26    49    1
    53    27    50    1
    54    28    51    1
    55    29    52    1
    56    29    53    1
    57    29    54    1
