@<TRIPOS>MOLECULE
ZINC00601270
 50 52 0 0 0
SMALL
GASTEIGER

@<TRIPOS>ATOM
      1 C           0.0090    4.0967    8.9622 C.ar    1  UNL1       -0.0486
      2 C          -0.3644    4.4161   10.2491 C.ar    1  UNL1       -0.0258
      3 C           0.2540    3.8000   11.3272 C.ar    1  UNL1        0.1234
      4 C           1.2474    2.8548   11.1175 C.ar    1  UNL1       -0.0258
      5 C           1.6263    2.5220    9.8356 C.ar    1  UNL1       -0.0486
      6 C           1.0065    3.1398    8.7436 C.ar    1  UNL1        0.0176
      7 C           1.4057    2.7896    7.3727 C.2     1  UNL1        0.1634
      8 O           2.2739    1.9636    7.1864 O.2     1  UNL1       -0.2921
      9 C           0.7361    3.4569    6.1991 C.3     1  UNL1        0.0153
     10 C           1.3319    2.9171    4.8974 C.3     1  UNL1       -0.0055
     11 C           0.6521    3.5946    3.7059 C.3     1  UNL1       -0.0315
     12 C           0.4423    3.5211    1.2952 C.3     1  UNL1       -0.0289
     13 C           1.1461    3.0865    0.0077 C.3     1  UNL1        0.0207
     14 C           1.2864    1.5618   -0.0018 C.3     1  UNL1        0.1005
     15 C           2.0624    1.1207    1.2422 C.3     1  UNL1        0.0207
     16 C           1.3320    1.6123    2.4940 C.3     1  UNL1       -0.0289
     17 C           2.0306    1.1322   -1.2398 C.ar    1  UNL1       -0.0157
     18 C           2.9652    1.9752   -1.8117 C.ar    1  UNL1       -0.0548
     19 C           3.6515    1.5797   -2.9443 C.ar    1  UNL1       -0.0474
     20 C           3.3955    0.3444   -3.5118 C.ar    1  UNL1        0.0179
     21 C           2.4565   -0.4966   -2.9423 C.ar    1  UNL1       -0.0474
     22 C           1.7745   -0.1024   -1.8066 C.ar    1  UNL1       -0.0548
     23 BR          4.3294   -0.1946   -5.0652 Br      1  UNL1       -0.0503
     24 O          -0.0110    0.9628    0.0073 O.3     1  UNL1       -0.3836
     25 F          -0.1132    4.1215   12.5869 F       1  UNL1       -0.2055
     26 H          -0.4701    4.5804    8.1238 H       1  UNL1        0.0625
     27 H          -1.1372    5.1512   10.4192 H       1  UNL1        0.0646
     28 H           1.7247    2.3785   11.9611 H       1  UNL1        0.0646
     29 H           2.3996    1.7857    9.6737 H       1  UNL1        0.0625
     30 H           0.8835    4.4447    6.2487 H       1  UNL1        0.0347
     31 H          -0.3333    3.2474    6.2236 H       1  UNL1        0.0347
     32 H           1.1712    1.8403    4.8433 H       1  UNL1        0.0321
     33 H           2.4013    3.1265    4.8729 H       1  UNL1        0.0321
     34 H           0.8127    4.6713    3.7599 H       1  UNL1        0.0814
     35 H          -0.4173    3.3851    3.7303 H       1  UNL1        0.0814
     36 H           0.3537    4.6074    1.3118 H       1  UNL1        0.0815
     37 H          -0.5514    3.0750    1.3343 H       1  UNL1        0.0815
     38 H           2.1348    3.5431   -0.0386 H       1  UNL1        0.0348
     39 H           0.5577    3.4032   -0.8534 H       1  UNL1        0.0348
     40 H           2.1286    0.0329    1.2632 H       1  UNL1        0.0348
     41 H           3.0655    1.5464    1.2154 H       1  UNL1        0.0348
     42 H           1.8896    1.3121    3.3812 H       1  UNL1        0.0815
     43 H           0.3340    1.1753    2.5272 H       1  UNL1        0.0815
     44 H           3.1620    2.9413   -1.3709 H       1  UNL1        0.0622
     45 H           4.3848    2.2365   -3.3885 H       1  UNL1        0.0629
     46 H           2.2566   -1.4613   -3.3848 H       1  UNL1        0.0629
     47 H           1.0416   -0.7591   -1.3616 H       1  UNL1        0.0622
     48 H           0.0021   -0.0041    0.0020 H       1  UNL1        0.2106
     49 N           1.2516    3.0881    2.4541 N.4     1  UNL1        0.2354
     50 H           2.1997    3.4708    2.3597 H       1  UNL1        0.2033
@<TRIPOS>UNITY_ATOM_ATTR
49 1
charge 1
@<TRIPOS>BOND
     1     1     6   ar
     2     1     2   ar
     3     1    26    1
     4     2     3   ar
     5     2    27    1
     6     3     4   ar
     7     3    25    1
     8     4     5   ar
     9     4    28    1
    10     5     6   ar
    11     5    29    1
    12     6     7    1
    13     7     8    2
    14     7     9    1
    15     9    10    1
    16     9    30    1
    17     9    31    1
    18    10    11    1
    19    10    32    1
    20    10    33    1
    21    11    34    1
    22    11    35    1
    23    11    49    1
    24    12    13    1
    25    12    36    1
    26    12    37    1
    27    12    49    1
    28    13    14    1
    29    13    38    1
    30    13    39    1
    31    14    15    1
    32    14    17    1
    33    14    24    1
    34    15    16    1
    35    15    40    1
    36    15    41    1
    37    16    42    1
    38    16    43    1
    39    16    49    1
    40    17    22   ar
    41    17    18   ar
    42    18    19   ar
    43    18    44    1
    44    19    20   ar
    45    19    45    1
    46    20    21   ar
    47    20    23    1
    48    21    22   ar
    49    21    46    1
    50    22    47    1
    51    24    48    1
    52    49    50    1
