@<TRIPOS>MOLECULE
ZINC03127406
 25 25 0 0 0
SMALL
GASTEIGER

@<TRIPOS>ATOM
      1 C           1.2025    3.0914    2.5041 C.3     1  UNL1       -0.0639
      2 C           1.8581    3.6518    1.2404 C.3     1  UNL1       -0.0334
      3 C           1.1004    3.1524    0.0085 C.3     1  UNL1        0.1229
      4 C           1.1604    1.6366   -0.0002 C.2     1  UNL1        0.2354
      5 O           2.2209    1.0495   -0.0139 O.2     1  UNL1       -0.2742
      6 N          -0.0111    0.9658    0.0074 N.am    1  UNL1       -0.2390
      7 C          -1.1897    1.5988    0.0165 C.2     1  UNL1        0.3122
      8 O          -2.1951    0.9168    0.0177 O.2     1  UNL1       -0.2520
      9 N          -1.3421    2.9280    0.0306 N.am    1  UNL1       -0.2390
     10 C          -0.2858    3.7685    0.0250 C.2     1  UNL1        0.2354
     11 O          -0.4392    4.9710    0.0333 O.2     1  UNL1       -0.2742
     12 C           1.8298    3.6649   -1.2350 C.3     1  UNL1       -0.0334
     13 C           1.1455    3.1178   -2.4894 C.3     1  UNL1       -0.0639
     14 H           1.7422    3.4471    3.3818 H       1  UNL1        0.0230
     15 H           0.1662    3.4257    2.5547 H       1  UNL1        0.0230
     16 H           1.2319    2.0021    2.4763 H       1  UNL1        0.0230
     17 H           2.8943    3.3175    1.1898 H       1  UNL1        0.0277
     18 H           1.8286    4.7410    1.2682 H       1  UNL1        0.0277
     19 H           0.0021   -0.0041    0.0020 H       1  UNL1        0.1591
     20 H          -2.2383    3.2988    0.0408 H       1  UNL1        0.1591
     21 H           1.7999    4.7543   -1.2506 H       1  UNL1        0.0277
     22 H           2.8669    3.3302   -1.2117 H       1  UNL1        0.0277
     23 H           0.1084    3.4525   -2.5127 H       1  UNL1        0.0230
     24 H           1.6651    3.4829   -3.3752 H       1  UNL1        0.0230
     25 H           1.1754    2.0284   -2.4737 H       1  UNL1        0.0230
@<TRIPOS>BOND
     1     1     2    1
     2     1    14    1
     3     1    15    1
     4     1    16    1
     5     2     3    1
     6     2    17    1
     7     2    18    1
     8     3    10    1
     9     3     4    1
    10     3    12    1
    11     4     5    2
    12     4     6   am
    13     6     7   am
    14     6    19    1
    15     7     8    2
    16     7     9   am
    17     9    10   am
    18     9    20    1
    19    10    11    2
    20    12    13    1
    21    12    21    1
    22    12    22    1
    23    13    23    1
    24    13    24    1
    25    13    25    1
