@<TRIPOS>MOLECULE
ZINC03831565
 65 67 0 0 0
SMALL
GASTEIGER

@<TRIPOS>ATOM
      1 C          -5.8654    4.1793    5.5893 C.3     1  UNL1       -0.0306
      2 C          -4.7322    4.0186    4.5740 C.3     1  UNL1        0.0899
      3 O          -3.5288    4.6478    5.0881 O.3     1  UNL1       -0.4610
      4 C          -2.4347    4.5954    4.3124 C.2     1  UNL1        0.3560
      5 O          -2.4809    4.0420    3.2393 O.2     1  UNL1       -0.2444
      6 C          -1.1486    5.2267    4.7798 C.3     1  UNL1        0.0770
      7 H          -0.8326    4.7596    5.7126 H       1  UNL1        0.0969
      8 C          -1.3686    6.7235    5.0079 C.3     1  UNL1        0.0048
      9 C          -0.1003    7.3410    5.6003 C.3     1  UNL1       -0.0220
     10 C          -0.3171    8.8153    5.8249 C.ar    1  UNL1       -0.0471
     11 C          -0.0065    9.7196    4.8265 C.ar    1  UNL1       -0.0586
     12 C          -0.2099   11.0716    5.0308 C.ar    1  UNL1       -0.0615
     13 C          -0.7139   11.5202    6.2373 C.ar    1  UNL1       -0.0617
     14 C          -1.0195   10.6163    7.2376 C.ar    1  UNL1       -0.0615
     15 C          -0.8211    9.2639    7.0314 C.ar    1  UNL1       -0.0586
     16 CA          0.5474    3.7299    3.9163 C.3     1  UNL1        0.0531
     17 HA         -0.1817    2.9945    4.2564 H       1  UNL1        0.0947
     18 CB          1.6728    3.8462    4.9463 C.3     1  UNL1       -0.0129
     19 C           1.1209    3.2938    2.5927 C.2     1  UNL1        0.2643
     20 O           1.4034    4.1211    1.7521 O.2     1  UNL1       -0.2694
     21 N           1.3199    1.9844    2.3431 N.am    1  UNL1       -0.2853
     22 C           1.8153    1.4119    1.0886 C.3     1  UNL1        0.0297
     23 H           2.9031    1.3635    1.1366 H       1  UNL1        0.0503
     24 C           1.4287    2.2455   -0.0942 C.3     1  UNL1       -0.0340
     25 C          -0.0827    2.2270   -0.3224 C.3     1  UNL1       -0.0514
     26 C          -0.5223    0.7747   -0.5371 C.3     1  UNL1       -0.0527
     27 C          -0.2352   -0.0164    0.7368 C.3     1  UNL1       -0.0485
     28 C           1.2643   -0.0252    1.0415 C.3     1  UNL1       -0.0203
     29 H           1.8233   -0.6663    0.3599 H       1  UNL1        0.0319
     30 C           1.4127   -0.4554    2.5332 C.3     1  UNL1       -0.0245
     31 CA          1.0770    0.8759    3.2838 C.3     1  UNL1        0.0662
     32 HA          1.7215    0.9818    4.1564 H       1  UNL1        0.0562
     33 C          -0.3682    0.8730    3.7110 C.2     1  UNL1        0.0622
     34 O          -1.1274    1.7080    3.2795 O.co2   1  UNL1       -0.5479
     35 H          -6.0537    5.2394    5.7588 H       1  UNL1        0.0262
     36 H          -6.7687    3.7069    5.2034 H       1  UNL1        0.0262
     37 H          -5.5810    3.7060    6.5292 H       1  UNL1        0.0262
     38 H          -5.0165    4.4918    3.6342 H       1  UNL1        0.0694
     39 H          -4.5438    2.9584    4.4046 H       1  UNL1        0.0694
     40 H          -1.5980    7.2059    4.0577 H       1  UNL1        0.0329
     41 H          -2.1996    6.8675    5.6984 H       1  UNL1        0.0329
     42 H           0.1290    6.8586    6.5504 H       1  UNL1        0.0315
     43 H           0.7306    7.1970    4.9098 H       1  UNL1        0.0315
     44 H           0.3914    9.3695    3.8855 H       1  UNL1        0.0620
     45 H           0.0292   11.7777    4.2494 H       1  UNL1        0.0618
     46 H          -0.8686   12.5768    6.3985 H       1  UNL1        0.0618
     47 H          -1.4130   10.9668    8.1803 H       1  UNL1        0.0618
     48 H          -1.0596    8.5578    7.8130 H       1  UNL1        0.0620
     49 HB1         1.2485    4.0746    5.9239 H       1  UNL1        0.0289
     50 HB2         2.2171    2.9032    4.9977 H       1  UNL1        0.0289
     51 HB3         2.3547    4.6436    4.6509 H       1  UNL1        0.0289
     52 H           1.9282    1.8479   -0.9776 H       1  UNL1        0.0283
     53 H           1.7532    3.2737    0.0658 H       1  UNL1        0.0283
     54 H          -0.3279    2.8188   -1.2043 H       1  UNL1        0.0266
     55 H          -0.5906    2.6392    0.5495 H       1  UNL1        0.0266
     56 H          -1.5901    0.7441   -0.7538 H       1  UNL1        0.0265
     57 H           0.0346    0.3432   -1.3688 H       1  UNL1        0.0265
     58 H          -0.7683    0.4401    1.5708 H       1  UNL1        0.0269
     59 H          -0.5809   -1.0420    0.6081 H       1  UNL1        0.0269
     60 H           0.7026   -1.2445    2.7805 H       1  UNL1        0.0290
     61 H           2.4339   -0.7727    2.7443 H       1  UNL1        0.0290
     62 N          -0.1070    5.0416    3.7518 N.4     1  UNL1        0.2457
     63 H1          0.5956    5.7846    3.8439 H       1  UNL1        0.2030
     64 H2         -0.5374    5.0910    2.8209 H       1  UNL1        0.2030
     65 OXT        -0.8120   -0.0572    4.5710 O.co2   1  UNL1       -0.5479
@<TRIPOS>UNITY_ATOM_ATTR
62 1
charge 1
65 1
charge -1
@<TRIPOS>BOND
     1     1     2    1
     2     1    35    1
     3     1    36    1
     4     1    37    1
     5     2     3    1
     6     2    38    1
     7     2    39    1
     8     3     4    1
     9     4     5    2
    10     4     6    1
    11     6     7    1
    12     6     8    1
    13     6    62    1
    14     8     9    1
    15     8    40    1
    16     8    41    1
    17     9    10    1
    18     9    42    1
    19     9    43    1
    20    10    15   ar
    21    10    11   ar
    22    11    12   ar
    23    11    44    1
    24    12    13   ar
    25    12    45    1
    26    13    14   ar
    27    13    46    1
    28    14    15   ar
    29    14    47    1
    30    15    48    1
    31    16    17    1
    32    16    18    1
    33    16    19    1
    34    16    62    1
    35    18    49    1
    36    18    50    1
    37    18    51    1
    38    19    20    2
    39    19    21   am
    40    21    31    1
    41    21    22    1
    42    22    23    1
    43    22    28    1
    44    22    24    1
    45    24    25    1
    46    24    52    1
    47    24    53    1
    48    25    26    1
    49    25    54    1
    50    25    55    1
    51    26    27    1
    52    26    56    1
    53    26    57    1
    54    27    28    1
    55    27    58    1
    56    27    59    1
    57    28    29    1
    58    28    30    1
    59    30    31    1
    60    30    60    1
    61    30    61    1
    62    31    32    1
    63    31    33    1
    64    33    34   ar
    65    33    65   ar
    66    62    63    1
    67    62    64    1
