@<TRIPOS>MOLECULE
ZINC00057235
 42 43 0 0 0
SMALL
GASTEIGER

@<TRIPOS>ATOM
      1 C           7.2057    1.0794    1.2204 C.3     1  UNL1       -0.0479
      2 C           6.8061   -0.3967    1.1701 C.3     1  UNL1        0.0256
      3 H           6.1896   -0.6355    2.0367 H       1  UNL1        0.0477
      4 C           8.0651   -1.2666    1.1847 C.3     1  UNL1       -0.0360
      5 C           8.9181   -0.9419   -0.0447 C.3     1  UNL1       -0.0501
      6 C           8.0862   -1.1739   -1.3091 C.3     1  UNL1       -0.0360
      7 C           6.8266   -0.3067   -1.2514 C.3     1  UNL1        0.0256
      8 H           7.1114    0.7444   -1.2041 H       1  UNL1        0.0477
      9 N           6.0447   -0.6558   -0.0585 N.3     1  UNL1       -0.2212
     10 N           4.8510    0.0082   -0.0439 N.am    1  UNL1       -0.2438
     11 C           3.6947   -0.6841   -0.0365 C.2     1  UNL1        0.2578
     12 O           3.7140   -1.8996   -0.0429 O.2     1  UNL1       -0.2689
     13 C           2.4034    0.0343   -0.0208 C.ar    1  UNL1        0.0399
     14 C           2.3780    1.4304   -0.0131 C.ar    1  UNL1       -0.0481
     15 C           1.1702    2.0951    0.0021 C.ar    1  UNL1       -0.0408
     16 C          -0.0167    1.3807    0.0096 C.ar    1  UNL1        0.0673
     17 C           0.0021   -0.0041    0.0020 C.ar    1  UNL1        0.1239
     18 C           1.2041   -0.6801   -0.0131 C.ar    1  UNL1       -0.0218
     19 S          -1.5127   -0.9040    0.0111 S.O2    1  UNL1        0.0574
     20 O          -2.3289   -0.3357   -1.0039 O.2     1  UNL1       -0.1532
     21 O          -1.1664   -2.2820    0.0276 O.2     1  UNL1       -0.1532
     22 N          -2.2619   -0.5870    1.4535 N.3     1  UNL1       -0.2035
     23 CL         -1.5337    2.2247    0.0214 Cl      1  UNL1       -0.0815
     24 C           5.9822   -0.5502   -2.5038 C.3     1  UNL1       -0.0479
     25 H           6.3091    1.6991    1.2110 H       1  UNL1        0.0245
     26 H           7.7709    1.2719    2.1323 H       1  UNL1        0.0245
     27 H           7.8219    1.3187    0.3537 H       1  UNL1        0.0245
     28 H           7.7808   -2.3186    1.1628 H       1  UNL1        0.0281
     29 H           8.6380   -1.0626    2.0893 H       1  UNL1        0.0281
     30 H           9.7945   -1.5898   -0.0614 H       1  UNL1        0.0266
     31 H           9.2360    0.0999   -0.0039 H       1  UNL1        0.0266
     32 H           7.8022   -2.2245   -1.3702 H       1  UNL1        0.0281
     33 H           8.6742   -0.9037   -2.1863 H       1  UNL1        0.0281
     34 H           4.8356    0.9781   -0.0389 H       1  UNL1        0.1695
     35 H           3.3027    1.9884   -0.0193 H       1  UNL1        0.0625
     36 H           1.1493    3.1749    0.0078 H       1  UNL1        0.0633
     37 H           1.2175   -1.7600   -0.0194 H       1  UNL1        0.0645
     38 H          -1.8430    0.0047    2.0979 H       1  UNL1        0.1442
     39 H          -3.1197   -0.9931    1.6541 H       1  UNL1        0.1442
     40 H           5.0854    0.0681   -2.4632 H       1  UNL1        0.0245
     41 H           6.5624   -0.2911   -3.3893 H       1  UNL1        0.0245
     42 H           5.6970   -1.6012   -2.5509 H       1  UNL1        0.0245
@<TRIPOS>BOND
     1     1     2    1
     2     1    25    1
     3     1    26    1
     4     1    27    1
     5     2     3    1
     6     2     9    1
     7     2     4    1
     8     4     5    1
     9     4    28    1
    10     4    29    1
    11     5     6    1
    12     5    30    1
    13     5    31    1
    14     6     7    1
    15     6    32    1
    16     6    33    1
    17     7     8    1
    18     7     9    1
    19     7    24    1
    20     9    10    1
    21    10    11   am
    22    10    34    1
    23    11    12    2
    24    11    13    1
    25    13    18   ar
    26    13    14   ar
    27    14    15   ar
    28    14    35    1
    29    15    16   ar
    30    15    36    1
    31    16    17   ar
    32    16    23    1
    33    17    18   ar
    34    17    19    1
    35    18    37    1
    36    19    20    2
    37    19    21    2
    38    19    22    1
    39    22    38    1
    40    22    39    1
    41    24    40    1
    42    24    41    1
    43    24    42    1
