@<TRIPOS>MOLECULE
ZINC03814363
 58 62 0 0 0
SMALL
GASTEIGER

@<TRIPOS>ATOM
      1 C          -0.1841   -1.5442   -2.4992 C.3     1  UNL1       -0.0020
      2 C          -0.2656   -2.5028   -1.3393 C.2     1  UNL1        0.1741
      3 O           0.3433   -3.5451   -1.3735 O.2     1  UNL1       -0.2934
      4 C          -1.1069   -2.1607   -0.1367 C.3     1  UNL1        0.1759
      5 C          -0.6227   -2.9544    1.0937 C.3     1  UNL1       -0.0049
      6 C          -1.8125   -3.8336    1.5421 C.3     1  UNL1       -0.0450
      7 C          -2.6639   -3.9966    0.2487 C.3     1  UNL1       -0.0248
      8 H          -3.6946   -4.2900    0.4479 H       1  UNL1        0.0313
      9 C          -2.5618   -2.5883   -0.3703 C.3     1  UNL1        0.0182
     10 C          -2.9512   -2.5477   -1.8299 C.3     1  UNL1       -0.0430
     11 C          -2.1818   -3.5862   -2.6488 C.3     1  UNL1       -0.0482
     12 C          -2.4766   -4.9676   -2.0586 C.3     1  UNL1       -0.0247
     13 H          -3.5534   -5.1360   -2.0436 H       1  UNL1        0.0315
     14 C          -1.9331   -5.0082   -0.6336 C.3     1  UNL1       -0.0141
     15 H          -0.8845   -4.7122   -0.6656 H       1  UNL1        0.0349
     16 C          -2.0059   -6.3856   -0.0558 C.2     1  UNL1       -0.0617
     17 C          -2.0870   -7.4857   -0.8013 C.2     1  UNL1        0.0412
     18 C          -2.1258   -7.3872   -2.2708 C.2     1  UNL1       -0.0196
     19 C          -2.4512   -8.4822   -2.9831 C.2     1  UNL1       -0.0138
     20 C          -2.6111   -8.4816   -4.3745 C.2     1  UNL1        0.1598
     21 O          -2.8084   -9.5247   -4.9648 O.2     1  UNL1       -0.2924
     22 C          -2.5383   -7.1847   -5.1374 C.3     1  UNL1        0.0255
     23 H          -3.2493   -7.1712   -5.8405 H       1  UNL1        0.0384
     24 C          -1.1599   -6.5641   -5.3638 C.3     1  UNL1       -0.0386
     25 C          -2.1264   -5.9436   -4.3505 C.3     1  UNL1       -0.0208
     26 H          -2.5848   -5.0004   -4.6479 H       1  UNL1        0.0316
     27 C          -1.7921   -6.0577   -2.8809 C.3     1  UNL1        0.0013
     28 C          -0.2813   -5.8540   -2.7503 C.3     1  UNL1       -0.0549
     29 CL         -2.1478   -9.0437   -0.0382 Cl      1  UNL1       -0.0836
     30 C          -3.4849   -1.6561    0.4169 C.3     1  UNL1       -0.0552
     31 O          -1.0411   -0.7349    0.1300 O.3     1  UNL1       -0.4500
     32 C           0.1672   -0.2228    0.4122 C.2     1  UNL1        0.3049
     33 O           1.1310   -0.9487    0.4763 O.2     1  UNL1       -0.2511
     34 C           0.3216    1.2574    0.6491 C.3     1  UNL1        0.0333
     35 H           0.5521   -0.8870   -2.3374 H       1  UNL1        0.0307
     36 H           0.0188   -2.0988   -3.4154 H       1  UNL1        0.0307
     37 H          -1.1305   -1.0125   -2.5983 H       1  UNL1        0.0307
     38 H           0.2262   -3.5822    0.8231 H       1  UNL1        0.0308
     39 H          -0.3415   -2.2692    1.8935 H       1  UNL1        0.0308
     40 H          -2.3890   -3.3312    2.3189 H       1  UNL1        0.0270
     41 H          -1.4599   -4.8036    1.8928 H       1  UNL1        0.0270
     42 H          -4.0195   -2.7452   -1.9187 H       1  UNL1        0.0272
     43 H          -2.7404   -1.5546   -2.2267 H       1  UNL1        0.0272
     44 H          -2.5091   -3.5521   -3.6880 H       1  UNL1        0.0269
     45 H          -1.1127   -3.3812   -2.5926 H       1  UNL1        0.0269
     46 H          -1.9925   -6.4932    1.0187 H       1  UNL1        0.0589
     47 H          -2.5962   -9.4118   -2.4528 H       1  UNL1        0.0656
     48 H          -0.9968   -6.0270   -6.2981 H       1  UNL1        0.0275
     49 H          -0.2957   -7.1005   -4.9721 H       1  UNL1        0.0275
     50 H           0.0064   -5.9313   -1.7018 H       1  UNL1        0.0238
     51 H           0.2396   -6.6182   -3.3273 H       1  UNL1        0.0238
     52 H          -0.0137   -4.8675   -3.1288 H       1  UNL1        0.0238
     53 H          -3.3616   -0.6344    0.0577 H       1  UNL1        0.0237
     54 H          -4.5201   -1.9676    0.2781 H       1  UNL1        0.0237
     55 H          -3.2304   -1.7021    1.4758 H       1  UNL1        0.0237
     56 H           1.3662    1.4842    0.8624 H       1  UNL1        0.0342
     57 H           0.0057    1.8026   -0.2403 H       1  UNL1        0.0342
     58 H          -0.2954    1.5561    1.4965 H       1  UNL1        0.0342
@<TRIPOS>BOND
     1     1     2    1
     2     1    35    1
     3     1    36    1
     4     1    37    1
     5     2     3    2
     6     2     4    1
     7     4     9    1
     8     4     5    1
     9     4    31    1
    10     5     6    1
    11     5    38    1
    12     5    39    1
    13     6     7    1
    14     6    40    1
    15     6    41    1
    16     7     8    1
    17     7    14    1
    18     7     9    1
    19     9    10    1
    20     9    30    1
    21    10    11    1
    22    10    42    1
    23    10    43    1
    24    11    12    1
    25    11    44    1
    26    11    45    1
    27    12    13    1
    28    12    27    1
    29    12    14    1
    30    14    15    1
    31    14    16    1
    32    16    17    2
    33    16    46    1
    34    17    18    1
    35    17    29    1
    36    18    27    1
    37    18    19    2
    38    19    20    1
    39    19    47    1
    40    20    21    2
    41    20    22    1
    42    22    23    1
    43    22    25    1
    44    22    24    1
    45    24    25    1
    46    24    48    1
    47    24    49    1
    48    25    26    1
    49    25    27    1
    50    27    28    1
    51    28    50    1
    52    28    51    1
    53    28    52    1
    54    30    53    1
    55    30    54    1
    56    30    55    1
    57    31    32    1
    58    32    33    2
    59    32    34    1
    60    34    56    1
    61    34    57    1
    62    34    58    1
