@<TRIPOS>MOLECULE
ZINC00000882
 15 16 0 0 0
SMALL
GASTEIGER

@<TRIPOS>ATOM
      1 C          -3.2820    2.7934    0.0472 C.ar    1  UNL1        0.0957
      2 N          -2.4949    3.9064    0.0455 N.ar    1  UNL1       -0.3292
      3 H          -2.8114    4.8550    0.0533 H       1  UNL1        0.1682
      4 C          -1.1888    3.4865    0.0312 C.ar    1  UNL1        0.1627
      5 C          -1.2336    2.0821    0.0191 C.ar    1  UNL1        0.1470
      6 N          -2.5401    1.7242    0.0349 N.ar    1  UNL1       -0.2308
      7 C          -0.0167    1.3797    0.0096 C.ar    1  UNL1        0.1471
      8 N           1.1159    2.0751    0.0025 N.ar    1  UNL1       -0.2188
      9 C           1.1076    3.3955    0.0093 C.ar    1  UNL1        0.1205
     10 N          -0.0075    4.0951    0.0232 N.ar    1  UNL1       -0.2162
     11 N           0.0021   -0.0041    0.0020 N.pl3   1  UNL1       -0.3413
     12 H          -4.3619    2.7982    0.0568 H       1  UNL1        0.1027
     13 H           2.0510    3.9213    0.0035 H       1  UNL1        0.1048
     14 H           0.4702   -0.3266   -0.8208 H       1  UNL1        0.1438
     15 H          -0.8313   -0.5005    0.0073 H       1  UNL1        0.1438
@<TRIPOS>BOND
     1     1     6   ar
     2     1     2   ar
     3     1    12    1
     4     2     3    1
     5     2     4   ar
     6     4    10   ar
     7     4     5   ar
     8     5     6   ar
     9     5     7   ar
    10     7     8   ar
    11     7    11    1
    12     8     9   ar
    13     9    10   ar
    14     9    13    1
    15    11    14    1
    16    11    15    1
