@<TRIPOS>MOLECULE
ZINC00403013
 50 53 0 0 0
SMALL
GASTEIGER

@<TRIPOS>ATOM
      1 C           5.4690    2.3578    4.1483 C.3     1  UNL1       -0.0493
      2 C           6.6144    2.6788    3.1862 C.3     1  UNL1        0.0118
      3 N           6.0653    3.0485    1.8793 N.am    1  UNL1       -0.3014
      4 C           5.8291    2.0174    0.8657 C.3     1  UNL1        0.0118
      5 C           7.0333    1.9418   -0.0751 C.3     1  UNL1       -0.0493
      6 C           5.7774    4.3372    1.6093 C.2     1  UNL1        0.2275
      7 O           6.0636    5.2028    2.4091 O.2     1  UNL1       -0.2747
      8 C           5.0998    4.7025    0.3138 C.3     1  UNL1        0.0944
      9 H           5.6382    4.2568   -0.5226 H       1  UNL1        0.0490
     10 C           5.0695    6.2279    0.1569 C.3     1  UNL1       -0.0166
     11 C           2.9687    6.1298   -1.0811 C.3     1  UNL1        0.0092
     12 H           2.7182    5.9041   -2.1176 H       1  UNL1        0.0907
     13 C           2.0452    7.2849   -0.6766 C.3     1  UNL1        0.0219
     14 C           0.6226    6.7853   -0.6474 C.ar    1  UNL1       -0.0161
     15 C          -0.5743    7.3474   -0.7752 C.ar    1  UNL1        0.0061
     16 N          -1.5706    6.3914   -0.6510 N.ar    1  UNL1       -0.3603
     17 H          -2.5218    6.5726   -0.7092 H       1  UNL1        0.1653
     18 C          -1.0254    5.1615   -0.4371 C.ar    1  UNL1        0.0473
     19 C           0.3570    5.3674   -0.4325 C.ar    1  UNL1        0.0106
     20 C           1.3336    4.3647   -0.2495 C.ar    1  UNL1       -0.0074
     21 C           0.8519    3.0915   -0.0549 C.ar    1  UNL1       -0.0534
     22 C          -0.5232    2.8661   -0.0521 C.ar    1  UNL1       -0.0592
     23 C          -1.4790    3.8574   -0.2428 C.ar    1  UNL1       -0.0378
     24 C           2.7204    4.8665   -0.3015 C.2     1  UNL1        0.0052
     25 C           3.6772    4.2065    0.3258 C.2     1  UNL1       -0.0581
     26 C           4.4717    7.9841   -1.3950 C.3     1  UNL1       -0.0425
     27 H           5.8775    2.0827    5.1207 H       1  UNL1        0.0245
     28 H           4.8297    3.2339    4.2574 H       1  UNL1        0.0245
     29 H           4.8836    1.5280    3.7523 H       1  UNL1        0.0245
     30 H           7.2537    1.8027    3.0771 H       1  UNL1        0.0462
     31 H           7.1998    3.5087    3.5822 H       1  UNL1        0.0462
     32 H           5.6886    1.0532    1.3543 H       1  UNL1        0.0462
     33 H           4.9360    2.2683    0.2934 H       1  UNL1        0.0462
     34 H           6.8575    1.1746   -0.8292 H       1  UNL1        0.0245
     35 H           7.1737    2.9060   -0.5636 H       1  UNL1        0.0245
     36 H           7.9263    1.6909    0.4972 H       1  UNL1        0.0245
     37 H           4.5498    6.6732    1.0053 H       1  UNL1        0.0825
     38 H           6.0886    6.6112    0.1055 H       1  UNL1        0.0825
     39 H           2.3253    7.6471    0.3125 H       1  UNL1        0.0372
     40 H           2.1348    8.0947   -1.4008 H       1  UNL1        0.0372
     41 H          -0.7466    8.3991   -0.9498 H       1  UNL1        0.0810
     42 H           1.5364    2.2696    0.0949 H       1  UNL1        0.0624
     43 H          -0.8689    1.8549    0.1039 H       1  UNL1        0.0618
     44 H          -2.5340    3.6266   -0.2372 H       1  UNL1        0.0638
     45 H           3.4359    3.2971    0.8560 H       1  UNL1        0.0586
     46 H           5.5158    8.2324   -1.5851 H       1  UNL1        0.0778
     47 H           3.8772    8.2111   -2.2800 H       1  UNL1        0.0778
     48 H           4.1065    8.5703   -0.5517 H       1  UNL1        0.0778
     49 N           4.3856    6.5454   -1.1214 N.4     1  UNL1        0.2395
     50 H           4.8555    6.0358   -1.8788 H       1  UNL1        0.2037
@<TRIPOS>UNITY_ATOM_ATTR
49 1
charge 1
@<TRIPOS>BOND
     1     1     2    1
     2     1    27    1
     3     1    28    1
     4     1    29    1
     5     2     3    1
     6     2    30    1
     7     2    31    1
     8     3     4    1
     9     3     6   am
    10     4     5    1
    11     4    32    1
    12     4    33    1
    13     5    34    1
    14     5    35    1
    15     5    36    1
    16     6     7    2
    17     6     8    1
    18     8     9    1
    19     8    25    1
    20     8    10    1
    21    10    37    1
    22    10    38    1
    23    10    49    1
    24    11    12    1
    25    11    24    1
    26    11    13    1
    27    11    49    1
    28    13    14    1
    29    13    39    1
    30    13    40    1
    31    14    19   ar
    32    14    15   ar
    33    15    16   ar
    34    15    41    1
    35    16    17    1
    36    16    18   ar
    37    18    23   ar
    38    18    19   ar
    39    19    20   ar
    40    20    21   ar
    41    20    24    1
    42    21    22   ar
    43    21    42    1
    44    22    23   ar
    45    22    43    1
    46    23    44    1
    47    24    25    2
    48    25    45    1
    49    26    46    1
    50    26    47    1
    51    26    48    1
    52    26    49    1
    53    49    50    1
