@<TRIPOS>MOLECULE
ZINC01596709
 19 18 0 0 0
SMALL
GASTEIGER

@<TRIPOS>ATOM
      1 C1          1.0180    3.6060    1.4324 C.3     1  <1>         0.0424
      2 C2          1.2350    3.0943    0.0069 C.3     1  <1>         0.0251
      3 H1          0.4562    3.4914   -0.6442 H       1  <1>         0.0923
      4 C3          1.1765    1.5884   -0.0006 C.2     1  <1>         0.0902
      5 O1          2.1986    0.9442   -0.0139 O.co2   1  <1>        -0.5441
      6 S1          0.9409    5.4183    1.4191 S.3     1  <1>        -0.1489
      7 C4          0.6840    5.8593    3.1598 C.3     1  <1>         0.0334
      8 C5          0.6007    7.3583    3.2912 C.2     1  <1>         0.0515
      9 O2          0.7041    8.0573    2.3111 O.co2   1  <1>        -0.5490
     10 H2          0.0830    3.2053    1.8238 H       1  <1>         0.0436
     11 H3          1.8449    3.2821    2.0644 H       1  <1>         0.0436
     12 H4          3.2893    3.1803    0.1103 H       1  <1>         0.2001
     13 H5          2.6906    3.2654   -1.4389 H       1  <1>         0.2001
     14 H6         -0.2441    5.4114    3.5150 H       1  <1>         0.0437
     15 H7          1.5179    5.4882    3.7556 H       1  <1>         0.0437
     16 O3         -0.0110    0.9628    0.0073 O.co2   1  <1>        -0.5441
     17 N1          2.5472    3.5608   -0.4746 N.4     1  <1>         0.2255
     18 H8          2.5780    4.5861   -0.4302 H       1  <1>         0.2001
     19 O4          0.4117    7.9169    4.4970 O.co2   1  <1>        -0.5490
@<TRIPOS>UNITY_ATOM_ATTR
16 1
charge -1
17 1
charge 1
19 1
charge -1
@<TRIPOS>BOND
     1     1     2    1
     2     1     6    1
     3     1    10    1
     4     1    11    1
     5     2     3    1
     6     2     4    1
     7     2    17    1
     8     4     5   ar
     9     4    16   ar
    10     6     7    1
    11     7     8    1
    12     7    14    1
    13     7    15    1
    14     8     9   ar
    15     8    19   ar
    16    12    17    1
    17    13    17    1
    18    17    18    1
