@<TRIPOS>MOLECULE
ZINC08552283
 56 59 0 0 0
SMALL
GASTEIGER

@<TRIPOS>ATOM
      1 C           1.3573    5.9214    0.5457 C.3     1  UNL1       -0.0058
      2 C           1.8186    4.5046    0.3200 C.2     1  UNL1        0.1339
      3 O           2.9372    4.1763    0.6351 O.2     1  UNL1       -0.2974
      4 C           0.8847    3.4982   -0.2986 C.3     1  UNL1        0.0233
      5 H          -0.0597    3.8076   -0.1875 H       1  UNL1        0.0383
      6 C           1.2227    3.2933   -1.7865 C.3     1  UNL1       -0.0427
      7 C           2.2625    2.1538   -1.8340 C.3     1  UNL1       -0.0488
      8 C           2.2194    1.4746   -0.4669 C.3     1  UNL1       -0.0311
      9 H           3.1608    1.8037    0.0477 H       1  UNL1        0.0309
     10 C           1.0895    2.0992    0.3485 C.3     1  UNL1       -0.0128
     11 C          -0.2387    1.3593    0.1641 C.3     1  UNL1        0.0124
     12 C          -0.0443   -0.1242    0.3093 C.2     1  UNL1        0.1378
     13 O          -0.7541   -0.7600    1.0641 O.2     1  UNL1       -0.2971
     14 C           1.0360   -0.8192   -0.4817 C.3     1  UNL1        0.0262
     15 H           1.2843   -1.6744   -0.0268 H       1  UNL1        0.0385
     16 C           2.3110   -0.0200   -0.4753 C.3     1  UNL1       -0.0277
     17 H           2.7577   -0.2452    0.5388 H       1  UNL1        0.0310
     18 C           3.3798   -0.5321   -1.4301 C.3     1  UNL1       -0.0490
     19 C           2.8236   -0.9461   -2.7868 C.3     1  UNL1       -0.0493
     20 C           1.6822   -1.9414   -2.5963 C.3     1  UNL1       -0.0326
     21 H           2.0515   -2.7755   -1.9817 H       1  UNL1        0.0307
     22 C           0.5321   -1.2685   -1.8462 C.3     1  UNL1       -0.0193
     23 C          -0.5849   -2.3032   -1.6343 C.3     1  UNL1       -0.0444
     24 C          -1.0563   -2.8720   -2.9682 C.3     1  UNL1       -0.0263
     25 C           0.1057   -3.5194   -3.7194 C.3     1  UNL1        0.0555
     26 H          -0.2458   -3.8822   -4.6876 H       1  UNL1        0.0593
     27 C           1.2181   -2.4918   -3.9393 C.3     1  UNL1       -0.0235
     28 O           0.6132   -4.6206   -2.9635 O.3     1  UNL1       -0.3918
     29 C          -0.0333   -0.1037   -2.6508 C.3     1  UNL1       -0.0587
     30 C           1.4561    2.2233    1.8348 C.3     1  UNL1       -0.0583
     31 H           0.5647    5.9207    1.1554 H       1  UNL1        0.0306
     32 H           2.1637    6.4982    0.9987 H       1  UNL1        0.0306
     33 H           1.0813    6.3700   -0.4086 H       1  UNL1        0.0306
     34 H           1.6440    4.2075   -2.2048 H       1  UNL1        0.0272
     35 H           0.3264    3.0110   -2.3390 H       1  UNL1        0.0272
     36 H           3.2635    2.5797   -2.0089 H       1  UNL1        0.0268
     37 H           2.0438    1.4638   -2.6449 H       1  UNL1        0.0268
     38 H          -0.6079    1.5584   -0.7437 H       1  UNL1        0.0347
     39 H          -0.9331    1.6967    0.9459 H       1  UNL1        0.0347
     40 H           4.1332    0.2508   -1.5763 H       1  UNL1        0.0268
     41 H           3.8825   -1.3935   -0.9729 H       1  UNL1        0.0268
     42 H           2.5006   -0.0826   -3.3560 H       1  UNL1        0.0268
     43 H           3.6241   -1.4404   -3.3574 H       1  UNL1        0.0268
     44 H          -0.2094   -3.1061   -1.0000 H       1  UNL1        0.0272
     45 H          -1.4233   -1.8157   -1.1318 H       1  UNL1        0.0272
     46 H          -1.8200   -3.6363   -2.7767 H       1  UNL1        0.0290
     47 H          -1.5064   -2.0948   -3.5834 H       1  UNL1        0.0290
     48 H           0.8631   -1.6949   -4.5866 H       1  UNL1        0.0293
     49 H           2.0618   -2.9893   -4.4318 H       1  UNL1        0.0293
     50 H          -0.0379   -5.3155   -2.7953 H       1  UNL1        0.2098
     51 H           0.7699    0.5902   -2.8991 H       1  UNL1        0.0235
     52 H          -0.4841   -0.4810   -3.5686 H       1  UNL1        0.0235
     53 H          -0.7898    0.4127   -2.0600 H       1  UNL1        0.0235
     54 H           1.4141    1.2397    2.3027 H       1  UNL1        0.0235
     55 H           2.4643    2.6270    1.9279 H       1  UNL1        0.0235
     56 H           0.7503    2.8911    2.3286 H       1  UNL1        0.0235
@<TRIPOS>BOND
     1     1     2    1
     2     1    31    1
     3     1    32    1
     4     1    33    1
     5     2     3    2
     6     2     4    1
     7     4     5    1
     8     4    10    1
     9     4     6    1
    10     6     7    1
    11     6    34    1
    12     6    35    1
    13     7     8    1
    14     7    36    1
    15     7    37    1
    16     8     9    1
    17     8    16    1
    18     8    10    1
    19    10    11    1
    20    10    30    1
    21    11    12    1
    22    11    38    1
    23    11    39    1
    24    12    13    2
    25    12    14    1
    26    14    15    1
    27    14    22    1
    28    14    16    1
    29    16    17    1
    30    16    18    1
    31    18    19    1
    32    18    40    1
    33    18    41    1
    34    19    20    1
    35    19    42    1
    36    19    43    1
    37    20    21    1
    38    20    27    1
    39    20    22    1
    40    22    23    1
    41    22    29    1
    42    23    24    1
    43    23    44    1
    44    23    45    1
    45    24    25    1
    46    24    46    1
    47    24    47    1
    48    25    26    1
    49    25    27    1
    50    25    28    1
    51    27    48    1
    52    27    49    1
    53    28    50    1
    54    29    51    1
    55    29    52    1
    56    29    53    1
    57    30    54    1
    58    30    55    1
    59    30    56    1
