@<TRIPOS>MOLECULE
ZINC03831025
 34 35 0 0 0
SMALL
GASTEIGER

@<TRIPOS>ATOM
      1 C          -2.3342    4.5719   -0.2370 C.3     1  UNL1       -0.0542
      2 C          -1.3839    3.4543    0.1975 C.3     1  UNL1        0.0136
      3 C          -2.1916    2.2037    0.6613 C.3     1  UNL1       -0.0300
      4 H          -3.0761    2.4050    1.2656 H       1  UNL1        0.0308
      5 C          -1.1189    1.2574    1.2885 C.3     1  UNL1       -0.0491
      6 C          -0.2883    0.7606    0.0832 C.3     1  UNL1       -0.0445
      7 C          -0.9335    1.4530   -1.1559 C.3     1  UNL1        0.0054
      8 H          -0.7259    0.9917   -2.1214 H       1  UNL1        0.0359
      9 C          -2.4394    1.4915   -0.7152 C.3     1  UNL1       -0.0413
     10 C          -0.5330    2.9535   -1.0172 C.3     1  UNL1       -0.0066
     11 C           0.9656    3.0819   -0.7366 C.3     1  UNL1       -0.0180
     12 C          -0.1788    3.1641   -3.4031 C.3     1  UNL1       -0.0443
     13 C          -0.4657    3.9425    1.3197 C.3     1  UNL1       -0.0542
     14 H          -2.9547    4.8702    0.6080 H       1  UNL1        0.0237
     15 H          -1.7545    5.4280   -0.5821 H       1  UNL1        0.0237
     16 H          -2.9703    4.2138   -1.0464 H       1  UNL1        0.0237
     17 H          -1.5991    0.4178    1.7910 H       1  UNL1        0.0268
     18 H          -0.4861    1.8070    1.9854 H       1  UNL1        0.0268
     19 H          -0.3601   -0.3233   -0.0068 H       1  UNL1        0.0270
     20 H           0.7533    1.0641    0.1886 H       1  UNL1        0.0270
     21 H          -3.0463    2.0992   -1.3864 H       1  UNL1        0.0273
     22 H          -2.8542    0.4915   -0.5892 H       1  UNL1        0.0273
     23 H           1.5258    2.5454   -1.5023 H       1  UNL1        0.0287
     24 H           1.2488    4.1343   -0.7495 H       1  UNL1        0.0287
     25 H           1.1896    2.6573    0.2420 H       1  UNL1        0.0287
     26 H          -0.4634    3.7303   -4.2900 H       1  UNL1        0.0777
     27 H           0.8958    3.2538   -3.2442 H       1  UNL1        0.0777
     28 H          -0.4390    2.1149   -3.5429 H       1  UNL1        0.0777
     29 H           0.2928    3.1867    1.5234 H       1  UNL1        0.0237
     30 H           0.0185    4.8704    1.0152 H       1  UNL1        0.0237
     31 H          -1.0543    4.1184    2.2201 H       1  UNL1        0.0237
     32 N          -0.8996    3.7023   -2.2341 N.4     1  UNL1        0.2295
     33 H          -0.6533    4.6914   -2.1102 H       1  UNL1        0.2016
     34 H          -1.9107    3.6186   -2.3916 H       1  UNL1        0.2016
@<TRIPOS>UNITY_ATOM_ATTR
32 1
charge 1
@<TRIPOS>BOND
     1     1     2    1
     2     1    14    1
     3     1    15    1
     4     1    16    1
     5     2    10    1
     6     2     3    1
     7     2    13    1
     8     3     4    1
     9     3     9    1
    10     3     5    1
    11     5     6    1
    12     5    17    1
    13     5    18    1
    14     6     7    1
    15     6    19    1
    16     6    20    1
    17     7     8    1
    18     7     9    1
    19     7    10    1
    20     9    21    1
    21     9    22    1
    22    10    11    1
    23    10    32    1
    24    11    23    1
    25    11    24    1
    26    11    25    1
    27    12    26    1
    28    12    27    1
    29    12    28    1
    30    12    32    1
    31    13    29    1
    32    13    30    1
    33    13    31    1
    34    32    33    1
    35    32    34    1
