@<TRIPOS>MOLECULE
ZINC11592803
 43 43 0 0 0
SMALL
GASTEIGER

@<TRIPOS>ATOM
      1 C           2.0439    0.6878    5.8069 C.3     1  UNL1        0.0122
      2 C           1.9749    0.0873    4.4264 C.2     1  UNL1        0.2104
      3 O           2.3963   -1.0329    4.2307 O.2     1  UNL1       -0.2761
      4 N           1.4451    0.7952    3.4094 N.am    1  UNL1       -0.3054
      5 C           1.3782    0.2116    2.0673 C.3     1  UNL1        0.0995
      6 H           1.1996   -0.8611    2.1416 H       1  UNL1        0.0574
      7 C           2.6947    0.4662    1.3258 C.3     1  UNL1        0.1194
      8 H           3.5325    0.2112    1.9748 H       1  UNL1        0.0759
      9 C           2.7811    1.9186    0.9425 C.2     1  UNL1       -0.0022
     10 C           1.7181    2.7091    0.9207 C.2     1  UNL1        0.1428
     11 O           0.4738    2.2826    1.2463 O.2     1  UNL1       -0.4826
     12 C           0.2433    0.8711    1.2720 C.3     1  UNL1        0.1501
     13 H           0.2337    0.4819    0.2540 H       1  UNL1        0.0780
     14 C          -1.0980    0.5801    1.9481 C.3     1  UNL1        0.1217
     15 H          -1.3117   -0.4871    1.8868 H       1  UNL1        0.0658
     16 C          -2.2061    1.3633    1.2410 C.3     1  UNL1        0.1075
     17 H          -1.9924    2.4303    1.3022 H       1  UNL1        0.0643
     18 C          -3.5473    1.0720    1.9170 C.3     1  UNL1        0.0727
     19 O          -4.5627    1.8908    1.3331 O.3     1  UNL1       -0.3924
     20 O          -2.2682    0.9678   -0.1307 O.3     1  UNL1       -0.3868
     21 O          -1.0359    0.9756    3.3198 O.3     1  UNL1       -0.3854
     22 C           1.8970    4.1167    0.5235 C.2     1  UNL1        0.1061
     23 O           3.0010    4.5284    0.2260 O.co2   1  UNL1       -0.5416
     24 N           2.7429   -0.3614    0.1180 N.pl3   1  UNL1       -0.2705
     25 C           3.9554   -0.7136   -0.4261 C.cat   1  UNL1        0.3415
     26 N           4.0007   -1.4902   -1.5597 N.pl3   1  UNL1       -0.2918
     27 H           1.1327    0.4462    6.3541 H       1  UNL1        0.0322
     28 H           2.9049    0.2812    6.3375 H       1  UNL1        0.0322
     29 H           2.1438    1.7703    5.7277 H       1  UNL1        0.0322
     30 H           1.1081    1.6913    3.5659 H       1  UNL1        0.1492
     31 H           3.7429    2.3310    0.6759 H       1  UNL1        0.0644
     32 H          -3.8034    0.0217    1.7787 H       1  UNL1        0.0584
     33 H          -3.4725    1.2906    2.9822 H       1  UNL1        0.0584
     34 H          -5.4417    1.7589    1.7140 H       1  UNL1        0.2095
     35 H          -2.4553    0.0280   -0.2610 H       1  UNL1        0.2100
     36 H          -0.8488    1.9153    3.4501 H       1  UNL1        0.2101
     37 H           1.9194   -0.6609   -0.2980 H       1  UNL1        0.2584
     38 H           5.9662   -0.5073   -0.1761 H       1  UNL1        0.2545
     39 H           3.1772   -1.7898   -1.9756 H       1  UNL1        0.2545
     40 H           4.8561   -1.7387   -1.9434 H       1  UNL1        0.2545
     41 O           0.8364    4.9476    0.4903 O.co2   1  UNL1       -0.5416
     42 N           5.0431   -0.2727    0.1892 N.pl3   1  UNL1       -0.2918
     43 H           4.9567    0.3049    1.0336 H       1  UNL1        0.2545
@<TRIPOS>UNITY_ATOM_ATTR
41 1
charge -1
42 1
charge 1
@<TRIPOS>BOND
     1     1     2    1
     2     1    27    1
     3     1    28    1
     4     1    29    1
     5     2     3    2
     6     2     4   am
     7     4     5    1
     8     4    30    1
     9     5     6    1
    10     5    12    1
    11     5     7    1
    12     7     8    1
    13     7     9    1
    14     7    24    1
    15     9    10    2
    16     9    31    1
    17    10    11    1
    18    10    22    1
    19    11    12    1
    20    12    13    1
    21    12    14    1
    22    14    15    1
    23    14    16    1
    24    14    21    1
    25    16    17    1
    26    16    18    1
    27    16    20    1
    28    18    19    1
    29    18    32    1
    30    18    33    1
    31    19    34    1
    32    20    35    1
    33    21    36    1
    34    22    23   ar
    35    22    41   ar
    36    24    25    1
    37    24    37    1
    38    25    26    1
    39    25    42    2
    40    26    39    1
    41    26    40    1
    42    38    42    1
    43    42    43    1
