@<TRIPOS>MOLECULE
ZINC03830928
 94 98 0 0 0
SMALL
GASTEIGER

@<TRIPOS>ATOM
      1 C           2.5956   -7.9101    3.3919 C.3     1  UNL1       -0.0442
      2 C           3.9659   -8.0355    2.7230 C.3     1  UNL1        0.0264
      3 C           4.3422   -9.5138    2.6045 C.3     1  UNL1       -0.0442
      4 C           5.0143   -7.3086    3.5677 C.3     1  UNL1       -0.0442
      5 N           3.9140   -7.4363    1.3872 N.am    1  UNL1       -0.3058
      6 C           3.6003   -6.1333    1.2449 C.2     1  UNL1        0.2669
      7 O           3.3610   -5.4568    2.2227 O.2     1  UNL1       -0.2694
      8 C           3.5468   -5.5168   -0.1292 C.3     1  UNL1        0.0974
      9 H           3.2520   -6.2734   -0.8563 H       1  UNL1        0.1005
     10 C           4.9270   -4.9664   -0.4960 C.3     1  UNL1        0.0215
     11 C           3.8830   -3.2358   -1.8277 C.3     1  UNL1        0.0098
     12 C           2.5027   -3.7862   -1.4610 C.3     1  UNL1        0.0103
     13 C           1.2427   -4.8961    0.2841 C.3     1  UNL1       -0.0041
     14 C           0.3126   -3.6985    0.4878 C.3     1  UNL1        0.0956
     15 H           0.1938   -3.1660   -0.4558 H       1  UNL1        0.0647
     16 C          -1.0533   -4.1900    0.9714 C.3     1  UNL1       -0.0104
     17 C          -2.0203   -3.0074    1.0558 C.3     1  UNL1        0.0420
     18 H          -1.5896   -2.2302    1.6871 H       1  UNL1        0.0398
     19 C          -2.2650   -2.4476   -0.3470 C.3     1  UNL1       -0.0165
     20 C          -3.1178   -1.2088   -0.2517 C.ar    1  UNL1       -0.0466
     21 C          -4.4842   -1.2939   -0.4427 C.ar    1  UNL1       -0.0586
     22 C          -5.2671   -0.1584   -0.3505 C.ar    1  UNL1       -0.0615
     23 C          -4.6823    1.0640   -0.0774 C.ar    1  UNL1       -0.0617
     24 C          -3.3151    1.1501    0.1080 C.ar    1  UNL1       -0.0615
     25 C          -2.5329    0.0137    0.0210 C.ar    1  UNL1       -0.0586
     26 C          -3.3273   -3.4684    1.6477 C.2     1  UNL1        0.2170
     27 O          -4.1937   -3.9182    0.9281 O.2     1  UNL1       -0.2755
     28 N          -3.5333   -3.3809    2.9767 N.am    1  UNL1       -0.3057
     29 C          -4.7525   -3.9385    3.5673 C.3     1  UNL1        0.0748
     30 H          -5.0564   -4.8362    3.0289 H       1  UNL1        0.0574
     31 C          -5.8641   -2.9113    3.5452 C.ar    1  UNL1       -0.0215
     32 C          -6.2641   -2.0431    2.5430 C.ar    1  UNL1       -0.0565
     33 C          -7.3225   -1.1810    2.7519 C.ar    1  UNL1       -0.0614
     34 C          -7.9853   -1.1834    3.9652 C.ar    1  UNL1       -0.0615
     35 C          -7.5876   -2.0481    4.9659 C.ar    1  UNL1       -0.0582
     36 C          -6.5267   -2.9138    4.7582 C.ar    1  UNL1       -0.0398
     37 C          -5.9057   -3.9428    5.6784 C.3     1  UNL1        0.0008
     38 C          -4.5260   -4.2599    5.0598 C.3     1  UNL1        0.0816
     39 H          -4.2712   -5.3110    5.1955 H       1  UNL1        0.0618
     40 O          -3.5153   -3.4151    5.6137 O.3     1  UNL1       -0.3893
     41 O           0.8751   -2.8191    1.4636 O.3     1  UNL1       -0.3865
     42 C           6.1871   -3.8564   -2.2410 C.3     1  UNL1       -0.0040
     43 C           6.1330   -3.4345   -3.6867 C.ar    1  UNL1        0.0151
     44 C           6.4050   -4.3468   -4.6950 C.ar    1  UNL1       -0.0507
     45 C           6.3389   -3.9152   -6.0107 C.ar    1  UNL1       -0.0432
     46 C           6.0159   -2.5968   -6.2717 C.ar    1  UNL1        0.0276
     47 N           5.7682   -1.7555   -5.2871 N.ar    1  UNL1       -0.2628
     48 C           5.8174   -2.1322   -4.0241 C.ar    1  UNL1        0.0358
     49 H           1.8488   -8.4280    2.7902 H       1  UNL1        0.0250
     50 H           2.6343   -8.3560    4.3858 H       1  UNL1        0.0250
     51 H           2.3276   -6.8569    3.4764 H       1  UNL1        0.0250
     52 H           5.3184   -9.6032    2.1279 H       1  UNL1        0.0250
     53 H           4.3808   -9.9597    3.5984 H       1  UNL1        0.0250
     54 H           3.5953  -10.0317    2.0027 H       1  UNL1        0.0250
     55 H           4.7462   -6.2555    3.6521 H       1  UNL1        0.0250
     56 H           5.0529   -7.7545    4.5615 H       1  UNL1        0.0250
     57 H           5.9905   -7.3980    3.0911 H       1  UNL1        0.0250
     58 H           4.1053   -7.9772    0.6051 H       1  UNL1        0.1494
     59 H           5.6495   -5.7822   -0.5189 H       1  UNL1        0.0876
     60 H           5.2340   -4.2295    0.2463 H       1  UNL1        0.0876
     61 H           3.8443   -2.7899   -2.8216 H       1  UNL1        0.0868
     62 H           4.1777   -2.4791   -1.1006 H       1  UNL1        0.0868
     63 H           2.1961   -4.5231   -2.2032 H       1  UNL1        0.0868
     64 H           1.7800   -2.9706   -1.4381 H       1  UNL1        0.0868
     65 H           1.3351   -5.4477    1.2197 H       1  UNL1        0.0840
     66 H           0.8300   -5.5502   -0.4841 H       1  UNL1        0.0840
     67 H          -0.9480   -4.6443    1.9566 H       1  UNL1        0.0299
     68 H          -1.4427   -4.9285    0.2706 H       1  UNL1        0.0299
     69 H          -2.7770   -3.1955   -0.9524 H       1  UNL1        0.0320
     70 H          -1.3104   -2.1969   -0.8097 H       1  UNL1        0.0320
     71 H          -4.9406   -2.2483   -0.6602 H       1  UNL1        0.0620
     72 H          -6.3352   -0.2256   -0.4957 H       1  UNL1        0.0618
     73 H          -5.2935    1.9518   -0.0091 H       1  UNL1        0.0618
     74 H          -2.8582    2.1052    0.3210 H       1  UNL1        0.0618
     75 H          -1.4648    0.0810    0.1658 H       1  UNL1        0.0620
     76 H          -2.8743   -2.9486    3.5422 H       1  UNL1        0.1494
     77 H          -5.7468   -2.0406    1.5950 H       1  UNL1        0.0621
     78 H          -7.6324   -0.5057    1.9681 H       1  UNL1        0.0618
     79 H          -8.8130   -0.5096    4.1304 H       1  UNL1        0.0618
     80 H          -8.1061   -2.0497    5.9134 H       1  UNL1        0.0620
     81 H          -5.7860   -3.5309    6.6805 H       1  UNL1        0.0339
     82 H          -6.5214   -4.8417    5.7108 H       1  UNL1        0.0339
     83 H          -3.3361   -3.5780    6.5499 H       1  UNL1        0.2099
     84 H           1.0091   -3.2270    2.3300 H       1  UNL1        0.2100
     85 H           6.4811   -3.0065   -1.6252 H       1  UNL1        0.0868
     86 H           6.9151   -4.6591   -2.1237 H       1  UNL1        0.0868
     87 H           6.6586   -5.3702   -4.4610 H       1  UNL1        0.0623
     88 H           6.5411   -4.5995   -6.8215 H       1  UNL1        0.0633
     89 H           5.9663   -2.2516   -7.2938 H       1  UNL1        0.0829
     90 H           5.6083   -1.4146   -3.2446 H       1  UNL1        0.0834
     91 N           4.8533   -4.3508   -1.8376 N.4     1  UNL1        0.2466
     92 H           4.5416   -5.0586   -2.5130 H       1  UNL1        0.2041
     93 N           2.5764   -4.4017   -0.1193 N.4     1  UNL1        0.2533
     94 H           2.8882   -3.6939    0.5560 H       1  UNL1        0.2047
@<TRIPOS>UNITY_ATOM_ATTR
91 1
charge 1
93 1
charge 1
@<TRIPOS>BOND
     1     1     2    1
     2     1    49    1
     3     1    50    1
     4     1    51    1
     5     2     3    1
     6     2     4    1
     7     2     5    1
     8     3    52    1
     9     3    53    1
    10     3    54    1
    11     4    55    1
    12     4    56    1
    13     4    57    1
    14     5     6   am
    15     5    58    1
    16     6     7    2
    17     6     8    1
    18     8     9    1
    19     8    10    1
    20     8    93    1
    21    10    59    1
    22    10    60    1
    23    10    91    1
    24    11    12    1
    25    11    61    1
    26    11    62    1
    27    11    91    1
    28    12    63    1
    29    12    64    1
    30    12    93    1
    31    13    14    1
    32    13    65    1
    33    13    66    1
    34    13    93    1
    35    14    15    1
    36    14    16    1
    37    14    41    1
    38    16    17    1
    39    16    67    1
    40    16    68    1
    41    17    18    1
    42    17    19    1
    43    17    26    1
    44    19    20    1
    45    19    69    1
    46    19    70    1
    47    20    25   ar
    48    20    21   ar
    49    21    22   ar
    50    21    71    1
    51    22    23   ar
    52    22    72    1
    53    23    24   ar
    54    23    73    1
    55    24    25   ar
    56    24    74    1
    57    25    75    1
    58    26    27    2
    59    26    28   am
    60    28    29    1
    61    28    76    1
    62    29    30    1
    63    29    38    1
    64    29    31    1
    65    31    36   ar
    66    31    32   ar
    67    32    33   ar
    68    32    77    1
    69    33    34   ar
    70    33    78    1
    71    34    35   ar
    72    34    79    1
    73    35    36   ar
    74    35    80    1
    75    36    37    1
    76    37    38    1
    77    37    81    1
    78    37    82    1
    79    38    39    1
    80    38    40    1
    81    40    83    1
    82    41    84    1
    83    42    43    1
    84    42    85    1
    85    42    86    1
    86    42    91    1
    87    43    48   ar
    88    43    44   ar
    89    44    45   ar
    90    44    87    1
    91    45    46   ar
    92    45    88    1
    93    46    47   ar
    94    46    89    1
    95    47    48   ar
    96    48    90    1
    97    91    92    1
    98    93    94    1
