@<TRIPOS>MOLECULE
ZINC01530991
 40 42 0 0 0
SMALL
GASTEIGER

@<TRIPOS>ATOM
      1 C          -3.2499   10.4297   -1.9885 C.ar    1  UNL1       -0.0617
      2 C          -2.3580    9.7863   -2.8260 C.ar    1  UNL1       -0.0613
      3 C          -1.0921    9.4656   -2.3724 C.ar    1  UNL1       -0.0528
      4 C          -0.7179    9.7892   -1.0816 C.ar    1  UNL1        0.0091
      5 C          -1.6114   10.4284   -0.2426 C.ar    1  UNL1       -0.0528
      6 C          -2.8757   10.7529   -0.6975 C.ar    1  UNL1       -0.0613
      7 CA          0.6621    9.4397   -0.5872 C.3     1  UNL1        0.0789
      8 HA          1.3226    9.2761   -1.4387 H       1  UNL1        0.1002
      9 C           0.5949    8.1850    0.2447 C.2     1  UNL1        0.2665
     10 O           0.5886    8.2596    1.4552 O.2     1  UNL1       -0.2692
     11 N           0.5417    6.9799   -0.3564 N.am    1  UNL1       -0.2974
     12 CA          0.4762    5.7601    0.4523 C.3     1  UNL1        0.1191
     13 HA          0.1119    5.9311    1.4653 H       1  UNL1        0.0614
     14 C          -0.1602    4.5747   -0.2513 C.3     1  UNL1        0.0584
     15 H          -0.3600    4.7246   -1.3123 H       1  UNL1        0.0528
     16 C          -1.3039    3.8692    0.4947 C.3     1  UNL1       -0.0268
     17 C          -1.3522    2.4140    0.0218 C.3     1  UNL1       -0.0134
     18 C          -0.0215    1.7317    0.0116 C.2     1  UNL1        0.0416
     19 CA          1.1586    2.3779    0.0038 C.2     1  UNL1        0.0734
     20 N           1.0647    3.7825    0.0433 N.am    1  UNL1       -0.2619
     21 C           1.7093    4.8899    0.3701 C.2     1  UNL1        0.2423
     22 O           2.8861    5.1260    0.5449 O.2     1  UNL1       -0.2731
     23 C           2.4482    1.6713   -0.0430 C.2     1  UNL1        0.0870
     24 O           3.4871    2.3022   -0.0482 O.co2   1  UNL1       -0.5433
     25 CL          0.0021   -0.0041    0.0020 Cl      1  UNL1       -0.0863
     26 H          -4.2388   10.6802   -2.3428 H       1  UNL1        0.0618
     27 H          -2.6503    9.5337   -3.8345 H       1  UNL1        0.0618
     28 H          -0.3954    8.9626   -3.0266 H       1  UNL1        0.0622
     29 H          -1.3205   10.6773    0.7673 H       1  UNL1        0.0622
     30 H          -3.5724   11.2559   -0.0433 H       1  UNL1        0.0618
     31 H           0.5467    6.9202   -1.3246 H       1  UNL1        0.1497
     32 H          -1.1198    3.9049    1.5684 H       1  UNL1        0.0287
     33 H          -2.2498    4.3608    0.2672 H       1  UNL1        0.0287
     34 H          -1.7635    2.3869   -0.9873 H       1  UNL1        0.0323
     35 H          -2.0210    1.8595    0.6801 H       1  UNL1        0.0323
     36 H1          0.5876   10.7141    1.0280 H       1  UNL1        0.2005
     37 H2          2.1319   10.3607    0.5219 H       1  UNL1        0.2005
     38 OXT         2.4776    0.3240   -0.0801 O.co2   1  UNL1       -0.5433
     39 N           1.1817   10.5616    0.2147 N.4     1  UNL1        0.2307
     40 H3          1.1881   11.4125   -0.3598 H       1  UNL1        0.2005
@<TRIPOS>UNITY_ATOM_ATTR
38 1
charge -1
39 1
charge 1
@<TRIPOS>BOND
     1     1     6   ar
     2     1     2   ar
     3     1    26    1
     4     2     3   ar
     5     2    27    1
     6     3     4   ar
     7     3    28    1
     8     4     5   ar
     9     4     7    1
    10     5     6   ar
    11     5    29    1
    12     6    30    1
    13     7     8    1
    14     7     9    1
    15     7    39    1
    16     9    10    2
    17     9    11   am
    18    11    12    1
    19    11    31    1
    20    12    13    1
    21    12    21    1
    22    12    14    1
    23    14    15    1
    24    14    20    1
    25    14    16    1
    26    16    17    1
    27    16    32    1
    28    16    33    1
    29    17    18    1
    30    17    34    1
    31    17    35    1
    32    18    19    2
    33    18    25    1
    34    19    20    1
    35    19    23    1
    36    20    21   am
    37    21    22    2
    38    23    24   ar
    39    23    38   ar
    40    36    39    1
    41    37    39    1
    42    39    40    1
