@<TRIPOS>MOLECULE
ZINC00388678
 28 29 0 0 0
SMALL
GASTEIGER

@<TRIPOS>ATOM
      1 C           1.4672    2.4786   -3.4167 C.ar    1  UNL1        0.0524
      2 C           1.8254    2.7170   -4.6969 C.ar    1  UNL1        0.2036
      3 C           1.2278    3.7997   -5.3895 C.ar    1  UNL1        0.2894
      4 O           1.5380    4.0375   -6.5430 O.2     1  UNL1       -0.2646
      5 N           0.3131    4.5642   -4.7596 N.ar    1  UNL1       -0.2725
      6 H          -0.1131    5.3295   -5.2419 H       1  UNL1        0.1735
      7 C          -0.0289    4.3019   -3.4846 C.ar    1  UNL1        0.3315
      8 O          -0.8551    5.0008   -2.9300 O.2     1  UNL1       -0.2464
      9 N           0.5297    3.2774   -2.8149 N.ar    1  UNL1       -0.2712
     10 C1*         0.1369    3.0169   -1.4278 C.3     1  UNL1        0.1423
     11 H1*        -0.5344    3.8015   -1.0787 H       1  UNL1        0.0840
     12 C2*        -0.5654    1.6455   -1.3311 C.3     1  UNL1        0.0214
     13 C3*        -0.0127    1.0858    0.0080 C.3     1  UNL1        0.0876
     14 H3*         0.0021   -0.0041    0.0020 H       1  UNL1        0.0621
     15 C4*         1.4249    1.6639   -0.0026 C.3     1  UNL1        0.1100
     16 H4*         2.0812    1.0346   -0.6037 H       1  UNL1        0.0646
     17 O4*         1.3008    2.9669   -0.5944 O.3     1  UNL1       -0.3483
     18 C5*         1.9618    1.7781    1.4255 C.3     1  UNL1        0.0729
     19 O5*         3.3261    2.2018    1.3889 O.3     1  UNL1       -0.3924
     20 O3*        -0.7589    1.5815    1.1214 O.3     1  UNL1       -0.3890
     21 F           2.7443    1.9372   -5.3075 F       1  UNL1       -0.1983
     22 H           1.9141    1.6606   -2.8712 H       1  UNL1        0.0842
     23 H2*1       -0.2816    1.0046   -2.1659 H       1  UNL1        0.0335
     24 H2*2       -1.6476    1.7663   -1.2839 H       1  UNL1        0.0335
     25 H5*1        1.3698    2.5069    1.9791 H       1  UNL1        0.0584
     26 H5*2        1.8958    0.8076    1.9172 H       1  UNL1        0.0584
     27 H5*         3.7323    2.2958    2.2614 H       1  UNL1        0.2095
     28 H3*        -1.6803    1.2886    1.1390 H       1  UNL1        0.2099
@<TRIPOS>BOND
     1     1     9   ar
     2     1     2   ar
     3     1    22    1
     4     2     3   ar
     5     2    21    1
     6     3     4    2
     7     3     5   ar
     8     5     6    1
     9     5     7   ar
    10     7     8    2
    11     7     9   ar
    12     9    10    1
    13    10    11    1
    14    10    17    1
    15    10    12    1
    16    12    13    1
    17    12    23    1
    18    12    24    1
    19    13    14    1
    20    13    15    1
    21    13    20    1
    22    15    16    1
    23    15    17    1
    24    15    18    1
    25    18    19    1
    26    18    25    1
    27    18    26    1
    28    19    27    1
    29    20    28    1
