@<TRIPOS>MOLECULE
ZINC08101100
 102 107 0 0 0
SMALL
GASTEIGER

@<TRIPOS>ATOM
      1 C           5.0636    3.9026    0.5260 C.3     1  UNL1       -0.0559
      2 C           4.0337    2.7881    0.8208 C.3     1  UNL1        0.0081
      3 C           2.8236    3.4578    1.4260 C.3     1  UNL1       -0.0434
      4 C           1.5757    2.5888    1.4145 C.3     1  UNL1       -0.0453
      5 C           1.2770    2.1472   -0.0237 C.3     1  UNL1       -0.0125
      6 H           1.1462    3.0239   -0.6589 H       1  UNL1        0.0352
      7 C           0.0061    1.3327   -0.0131 C.ar    1  UNL1       -0.0406
      8 C          -1.1972    2.0176    0.1025 C.ar    1  UNL1       -0.0546
      9 C          -2.3943    1.3342    0.1306 C.ar    1  UNL1       -0.0189
     10 C          -2.3971   -0.0506    0.0440 C.ar    1  UNL1        0.1319
     11 C          -1.1988   -0.7321   -0.0773 C.ar    1  UNL1       -0.0158
     12 C           0.0054   -0.0406   -0.1071 C.ar    1  UNL1       -0.0404
     13 C           1.2698   -0.8485   -0.2354 C.3     1  UNL1       -0.0270
     14 C           2.4788   -0.0186    0.2076 C.3     1  UNL1       -0.0454
     15 C           2.4401    1.3119   -0.5372 C.3     1  UNL1       -0.0305
     16 H           2.2271    1.0850   -1.5926 H       1  UNL1        0.0310
     17 C           3.7594    2.0548   -0.4948 C.3     1  UNL1       -0.0288
     18 H           3.8142    2.7648   -1.3393 H       1  UNL1        0.0310
     19 C           4.9135    1.0279   -0.5964 C.3     1  UNL1       -0.0460
     20 C           5.2972    0.6800    0.8510 C.3     1  UNL1       -0.0149
     21 C           4.7056    1.7777    1.7574 C.3     1  UNL1        0.1087
     22 H           5.5234    2.2749    2.3047 H       1  UNL1        0.0739
     23 O           3.7755    1.2202    2.7191 O.3     1  UNL1       -0.4606
     24 C           4.2765    0.8520    3.9086 C.2     1  UNL1        0.3117
     25 O           5.4547    0.9917    4.1373 O.2     1  UNL1       -0.2505
     26 C           3.3696    0.2643    4.9590 C.3     1  UNL1        0.0701
     27 C           4.1734   -0.0617    6.1913 C.ar    1  UNL1       -0.0367
     28 C           4.7503   -1.3110    6.3281 C.ar    1  UNL1       -0.0563
     29 C           5.4923   -1.6112    7.4536 C.ar    1  UNL1       -0.0404
     30 C           5.6492   -0.6604    8.4540 C.ar    1  UNL1        0.0298
     31 C           5.0636    0.5917    8.3160 C.ar    1  UNL1       -0.0404
     32 C           4.3276    0.8871    7.1854 C.ar    1  UNL1       -0.0563
     33 N           6.3938   -0.9627    9.5964 N.pl3   1  UNL1       -0.3276
     34 C           7.0107   -2.2837    9.7403 C.3     1  UNL1        0.0257
     35 C           8.4185   -2.2571    9.1416 C.3     1  UNL1        0.0383
     36 CL          9.1777   -3.8828    9.3187 Cl      1  UNL1       -0.1238
     37 C           6.5579    0.0411   10.6508 C.3     1  UNL1        0.0257
     38 C           5.4220   -0.0959   11.6666 C.3     1  UNL1        0.0383
     39 CL          5.6239    1.1396   12.9642 Cl      1  UNL1       -0.1238
     40 O          -3.5712   -0.7347    0.0773 O.3     1  UNL1       -0.4256
     41 C          -3.8109   -1.4814    1.1670 C.2     1  UNL1        0.3167
     42 O          -3.0509   -1.4420    2.1055 O.2     1  UNL1       -0.2501
     43 C          -5.0279   -2.3686    1.2197 C.3     1  UNL1        0.0705
     44 C          -5.0641   -3.0938    2.5402 C.ar    1  UNL1       -0.0366
     45 C          -4.4511   -4.3269    2.6671 C.ar    1  UNL1       -0.0563
     46 C          -4.4775   -4.9916    3.8773 C.ar    1  UNL1       -0.0404
     47 C          -5.1305   -4.4254    4.9648 C.ar    1  UNL1        0.0298
     48 C          -5.7501   -3.1892    4.8324 C.ar    1  UNL1       -0.0404
     49 C          -5.7150   -2.5273    3.6208 C.ar    1  UNL1       -0.0563
     50 N          -5.1636   -5.0974    6.1889 N.pl3   1  UNL1       -0.3276
     51 C          -4.5096   -6.4011    6.3267 C.3     1  UNL1        0.0257
     52 C          -3.0585   -6.1996    6.7676 C.3     1  UNL1        0.0383
     53 CL         -2.2536   -7.8040    6.9373 Cl      1  UNL1       -0.1238
     54 C          -5.8524   -4.4986    7.3348 C.3     1  UNL1        0.0257
     55 C          -7.3156   -4.9454    7.3409 C.3     1  UNL1        0.0383
     56 CL         -8.1633   -4.2084    8.7513 Cl      1  UNL1       -0.1238
     57 H           5.3173    4.4172    1.4528 H       1  UNL1        0.0236
     58 H           5.9635    3.4617    0.0972 H       1  UNL1        0.0236
     59 H           4.6362    4.6149   -0.1798 H       1  UNL1        0.0236
     60 H           2.6203    4.3782    0.8686 H       1  UNL1        0.0272
     61 H           3.0563    3.7356    2.4579 H       1  UNL1        0.0272
     62 H           0.7267    3.1753    1.7878 H       1  UNL1        0.0271
     63 H           1.7005    1.7199    2.0540 H       1  UNL1        0.0271
     64 H          -1.1946    3.0957    0.1676 H       1  UNL1        0.0622
     65 H          -3.3257    1.8737    0.2221 H       1  UNL1        0.0654
     66 H          -1.2001   -1.8098   -0.1494 H       1  UNL1        0.0657
     67 H           1.1973   -1.7356    0.3916 H       1  UNL1        0.0313
     68 H           1.4043   -1.1467   -1.2739 H       1  UNL1        0.0313
     69 H           2.4193    0.1465    1.2822 H       1  UNL1        0.0271
     70 H           3.3872   -0.5685   -0.0306 H       1  UNL1        0.0271
     71 H           5.7694    1.4744   -1.1104 H       1  UNL1        0.0269
     72 H           4.5952    0.1391   -1.1368 H       1  UNL1        0.0269
     73 H           6.3853    0.6588    0.9515 H       1  UNL1        0.0301
     74 H           4.8926   -0.2947    1.1260 H       1  UNL1        0.0301
     75 H           2.5923    0.9851    5.2124 H       1  UNL1        0.0426
     76 H           2.9096   -0.6458    4.5739 H       1  UNL1        0.0426
     77 H           4.6239   -2.0514    5.5521 H       1  UNL1        0.0621
     78 H           5.9463   -2.5856    7.5578 H       1  UNL1        0.0636
     79 H           5.1834    1.3330    9.0921 H       1  UNL1        0.0636
     80 H           3.8718    1.8603    7.0776 H       1  UNL1        0.0621
     81 H           7.0702   -2.5437   10.7972 H       1  UNL1        0.0475
     82 H           6.4073   -3.0255    9.2171 H       1  UNL1        0.0475
     83 H           8.3589   -1.9971    8.0848 H       1  UNL1        0.0445
     84 H           9.0219   -1.5153    9.6649 H       1  UNL1        0.0445
     85 H           7.5138   -0.1112   11.1519 H       1  UNL1        0.0475
     86 H           6.5332    1.0379   10.2104 H       1  UNL1        0.0475
     87 H           4.4661    0.0564   11.1655 H       1  UNL1        0.0445
     88 H           5.4467   -1.0927   12.1070 H       1  UNL1        0.0445
     89 H          -5.9261   -1.7599    1.1147 H       1  UNL1        0.0426
     90 H          -4.9839   -3.0944    0.4077 H       1  UNL1        0.0426
     91 H          -3.9477   -4.7687    1.8199 H       1  UNL1        0.0621
     92 H          -3.9948   -5.9526    3.9770 H       1  UNL1        0.0636
     93 H          -6.2583   -2.7461    5.6760 H       1  UNL1        0.0636
     94 H          -6.1962   -1.5660    3.5172 H       1  UNL1        0.0621
     95 H          -5.0370   -6.9950    7.0732 H       1  UNL1        0.0475
     96 H          -4.5295   -6.9207    5.3688 H       1  UNL1        0.0475
     97 H          -2.5311   -5.6057    6.0211 H       1  UNL1        0.0445
     98 H          -3.0386   -5.6800    7.7256 H       1  UNL1        0.0445
     99 H          -5.3702   -4.8211    8.2577 H       1  UNL1        0.0475
    100 H          -5.8045   -3.4122    7.2604 H       1  UNL1        0.0475
    101 H          -7.7978   -4.6229    6.4181 H       1  UNL1        0.0445
    102 H          -7.3635   -6.0318    7.4154 H       1  UNL1        0.0445
@<TRIPOS>BOND
     1     1     2    1
     2     1    57    1
     3     1    58    1
     4     1    59    1
     5     2    17    1
     6     2    21    1
     7     2     3    1
     8     3     4    1
     9     3    60    1
    10     3    61    1
    11     4     5    1
    12     4    62    1
    13     4    63    1
    14     5     6    1
    15     5    15    1
    16     5     7    1
    17     7    12   ar
    18     7     8   ar
    19     8     9   ar
    20     8    64    1
    21     9    10   ar
    22     9    65    1
    23    10    11   ar
    24    10    40    1
    25    11    12   ar
    26    11    66    1
    27    12    13    1
    28    13    14    1
    29    13    67    1
    30    13    68    1
    31    14    15    1
    32    14    69    1
    33    14    70    1
    34    15    16    1
    35    15    17    1
    36    17    18    1
    37    17    19    1
    38    19    20    1
    39    19    71    1
    40    19    72    1
    41    20    21    1
    42    20    73    1
    43    20    74    1
    44    21    22    1
    45    21    23    1
    46    23    24    1
    47    24    25    2
    48    24    26    1
    49    26    27    1
    50    26    75    1
    51    26    76    1
    52    27    32   ar
    53    27    28   ar
    54    28    29   ar
    55    28    77    1
    56    29    30   ar
    57    29    78    1
    58    30    31   ar
    59    30    33    1
    60    31    32   ar
    61    31    79    1
    62    32    80    1
    63    33    34    1
    64    33    37    1
    65    34    35    1
    66    34    81    1
    67    34    82    1
    68    35    36    1
    69    35    83    1
    70    35    84    1
    71    37    38    1
    72    37    85    1
    73    37    86    1
    74    38    39    1
    75    38    87    1
    76    38    88    1
    77    40    41    1
    78    41    42    2
    79    41    43    1
    80    43    44    1
    81    43    89    1
    82    43    90    1
    83    44    49   ar
    84    44    45   ar
    85    45    46   ar
    86    45    91    1
    87    46    47   ar
    88    46    92    1
    89    47    48   ar
    90    47    50    1
    91    48    49   ar
    92    48    93    1
    93    49    94    1
    94    50    51    1
    95    50    54    1
    96    51    52    1
    97    51    95    1
    98    51    96    1
    99    52    53    1
   100    52    97    1
   101    52    98    1
   102    54    55    1
   103    54    99    1
   104    54   100    1
   105    55    56    1
   106    55   101    1
   107    55   102    1
