@<TRIPOS>MOLECULE
ZINC02040199
 54 58 0 0 0
SMALL
GASTEIGER

@<TRIPOS>ATOM
      1 C           3.3071    3.1109    4.0942 C.3     1  UNL1       -0.0424
      2 C           2.1088    5.1669    3.6366 C.3     1  UNL1       -0.0273
      3 C           0.6954    5.7136    3.4568 C.3     1  UNL1        0.0134
      4 C           0.0438    5.0772    2.2556 C.ar    1  UNL1       -0.0265
      5 C          -1.0872    5.6780    1.7232 C.ar    1  UNL1       -0.0121
      6 C          -1.7256    5.1266    0.6255 C.ar    1  UNL1        0.1702
      7 C          -1.2278    3.9605    0.0528 C.ar    1  UNL1        0.2080
      8 C          -0.0952    3.3629    0.5866 C.ar    1  UNL1        0.1742
      9 C           0.5400    3.9212    1.6918 C.ar    1  UNL1        0.0528
     10 C           1.7697    3.2384    2.2310 C.3     1  UNL1        0.0507
     11 H           2.6195    3.4677    1.5881 H       1  UNL1        0.0946
     12 C           1.5419    1.7255    2.2449 C.3     1  UNL1        0.1757
     13 H           1.3187    1.3718    1.2383 H       1  UNL1        0.0848
     14 C           2.7634    1.0229    2.7828 C.ar    1  UNL1        0.0163
     15 C           4.0718    0.9581    2.3696 C.ar    1  UNL1       -0.0504
     16 C           4.9929    0.2107    3.0874 C.ar    1  UNL1       -0.0159
     17 C           4.6008   -0.4751    4.2247 C.ar    1  UNL1        0.1623
     18 C           3.2783   -0.4182    4.6542 C.ar    1  UNL1        0.1758
     19 C           2.3476    0.3368    3.9298 C.ar    1  UNL1        0.1110
     20 C           0.9112    0.5917    4.1185 C.2     1  UNL1        0.3440
     21 O           0.2392    0.1419    5.0254 O.2     1  UNL1       -0.2448
     22 O           0.4489    1.3936    3.1444 O.3     1  UNL1       -0.4468
     23 O           2.8931   -1.0894    5.7693 O.3     1  UNL1       -0.4906
     24 C           2.4334   -2.4309    5.5926 C.3     1  UNL1        0.0790
     25 O           5.5102   -1.2057    4.9237 O.3     1  UNL1       -0.4914
     26 C           6.8501   -1.2205    4.4272 C.3     1  UNL1        0.0790
     27 O           0.3936    2.2223    0.0302 O.3     1  UNL1       -0.4908
     28 C           1.3590    2.3713   -1.0128 C.3     1  UNL1        0.0790
     29 O          -2.0237    3.6182   -1.0033 O.3     1  UNL1       -0.4489
     30 C          -2.7705    4.8073   -1.3223 C.3     1  UNL1        0.2334
     31 O          -2.8327    5.5171   -0.0712 O.3     1  UNL1       -0.4525
     32 H           4.0298    3.0477    3.2807 H       1  UNL1        0.0778
     33 H           3.7094    3.7380    4.8898 H       1  UNL1        0.0778
     34 H           3.1100    2.1120    4.4835 H       1  UNL1        0.0778
     35 H           2.5094    5.4913    4.5970 H       1  UNL1        0.0818
     36 H           2.7450    5.5344    2.8315 H       1  UNL1        0.0818
     37 H           0.7320    6.7942    3.3186 H       1  UNL1        0.0365
     38 H           0.1126    5.4839    4.3488 H       1  UNL1        0.0365
     39 H          -1.4731    6.5830    2.1687 H       1  UNL1        0.0658
     40 H           4.3839    1.4911    1.4836 H       1  UNL1        0.0623
     41 H           6.0204    0.1634    2.7584 H       1  UNL1        0.0655
     42 H           2.1577   -2.8508    6.5600 H       1  UNL1        0.0660
     43 H           1.5646   -2.4335    4.9345 H       1  UNL1        0.0660
     44 H           3.2273   -3.0316    5.1488 H       1  UNL1        0.0660
     45 H           6.8589   -1.6305    3.4173 H       1  UNL1        0.0660
     46 H           7.2424   -0.2036    4.4099 H       1  UNL1        0.0660
     47 H           7.4711   -1.8385    5.0757 H       1  UNL1        0.0660
     48 H           1.6653    1.3873   -1.3677 H       1  UNL1        0.0660
     49 H           2.2281    2.9062   -0.6298 H       1  UNL1        0.0660
     50 H           0.9200    2.9342   -1.8366 H       1  UNL1        0.0660
     51 H          -2.2464    5.3990   -2.0729 H       1  UNL1        0.1166
     52 H          -3.7711    4.5496   -1.6694 H       1  UNL1        0.1166
     53 N           2.0367    3.6912    3.6064 N.4     1  UNL1        0.2417
     54 H           1.2717    3.3802    4.2165 H       1  UNL1        0.2038
@<TRIPOS>UNITY_ATOM_ATTR
53 1
charge 1
@<TRIPOS>BOND
     1     1    32    1
     2     1    33    1
     3     1    34    1
     4     1    53    1
     5     2     3    1
     6     2    35    1
     7     2    36    1
     8     2    53    1
     9     3     4    1
    10     3    37    1
    11     3    38    1
    12     4     9   ar
    13     4     5   ar
    14     5     6   ar
    15     5    39    1
    16     6    31    1
    17     6     7   ar
    18     7     8   ar
    19     7    29    1
    20     8     9   ar
    21     8    27    1
    22     9    10    1
    23    10    11    1
    24    10    12    1
    25    10    53    1
    26    12    13    1
    27    12    22    1
    28    12    14    1
    29    14    19   ar
    30    14    15   ar
    31    15    16   ar
    32    15    40    1
    33    16    17   ar
    34    16    41    1
    35    17    18   ar
    36    17    25    1
    37    18    19   ar
    38    18    23    1
    39    19    20    1
    40    20    21    2
    41    20    22    1
    42    23    24    1
    43    24    42    1
    44    24    43    1
    45    24    44    1
    46    25    26    1
    47    26    45    1
    48    26    46    1
    49    26    47    1
    50    27    28    1
    51    28    48    1
    52    28    49    1
    53    28    50    1
    54    29    30    1
    55    30    31    1
    56    30    51    1
    57    30    52    1
    58    53    54    1
