@<TRIPOS>MOLECULE
ZINC03830320
 53 56 0 0 0
SMALL
GASTEIGER

@<TRIPOS>ATOM
      1 C           0.0553    4.4574   -0.5164 C.ar    1  UNL1       -0.0617
      2 C           0.9249    3.8182    0.3474 C.ar    1  UNL1       -0.0614
      3 C           0.8697    2.4446    0.4927 C.ar    1  UNL1       -0.0558
      4 C          -0.0551    1.7102   -0.2259 C.ar    1  UNL1       -0.0151
      5 C          -0.9212    2.3488   -1.0936 C.ar    1  UNL1       -0.0558
      6 C          -0.8696    3.7230   -1.2349 C.ar    1  UNL1       -0.0614
      7 C          -0.1150    0.2127   -0.0678 C.3     1  UNL1        0.1047
      8 C          -0.1050   -0.4466   -1.4484 C.3     1  UNL1        0.0213
      9 C           1.1495   -0.0152   -2.2106 C.3     1  UNL1       -0.0289
     10 C           1.1690   -2.0115   -3.5798 C.3     1  UNL1       -0.0319
     11 C           0.9658   -2.5335   -5.0040 C.3     1  UNL1       -0.0123
     12 C           2.0494   -1.9507   -5.9154 C.3     1  UNL1       -0.0434
     13 C           1.9842   -0.4219   -5.8598 C.3     1  UNL1       -0.0123
     14 C           2.1578    0.0389   -4.4108 C.3     1  UNL1       -0.0319
     15 C          -1.3984   -0.1712    0.6714 C.3     1  UNL1        0.0224
     16 C          -1.5074   -1.6563    1.1427 C.3     1  UNL1       -0.0404
     17 C          -2.6865   -1.6053    2.2075 C.3     1  UNL1       -0.0459
     18 C          -3.0952   -0.0977    2.2036 C.3     1  UNL1       -0.0220
     19 H          -3.6974    0.2414    3.0464 H       1  UNL1        0.0343
     20 C          -1.6980    0.5975    2.0102 C.3     1  UNL1       -0.0347
     21 C          -3.6921    0.1233    0.8084 C.2     1  UNL1       -0.0842
     22 C          -2.7144    0.0810   -0.0745 C.2     1  UNL1       -0.0784
     23 O           1.0175   -0.2329    0.6811 O.3     1  UNL1       -0.3829
     24 H           0.0986    5.5305   -0.6301 H       1  UNL1        0.0618
     25 H           1.6477    4.3919    0.9085 H       1  UNL1        0.0618
     26 H           1.5493    1.9452    1.1672 H       1  UNL1        0.0621
     27 H          -1.6408    1.7746   -1.6583 H       1  UNL1        0.0621
     28 H          -1.5487    4.2223   -1.9100 H       1  UNL1        0.0618
     29 H          -0.1055   -1.5305   -1.3335 H       1  UNL1        0.0348
     30 H          -0.9912   -0.1398   -2.0040 H       1  UNL1        0.0348
     31 H           1.1982    1.0733   -2.2436 H       1  UNL1        0.0815
     32 H           2.0335   -0.4032   -1.7045 H       1  UNL1        0.0815
     33 H           2.1457   -2.3272   -3.2132 H       1  UNL1        0.0814
     34 H           0.3905   -2.4133   -2.9312 H       1  UNL1        0.0814
     35 H          -0.0164   -2.2298   -5.3662 H       1  UNL1        0.0317
     36 H           1.0343   -3.6213   -5.0067 H       1  UNL1        0.0317
     37 H           1.8830   -2.2854   -6.9393 H       1  UNL1        0.0269
     38 H           3.0296   -2.2860   -5.5764 H       1  UNL1        0.0269
     39 H           1.0180   -0.0850   -6.2355 H       1  UNL1        0.0317
     40 H           2.7803   -0.0005   -6.4735 H       1  UNL1        0.0317
     41 H           2.0975    1.1263   -4.3658 H       1  UNL1        0.0814
     42 H           3.1299   -0.2866   -4.0404 H       1  UNL1        0.0814
     43 H          -1.7756   -2.3045    0.3084 H       1  UNL1        0.0275
     44 H          -0.5728   -1.9834    1.5983 H       1  UNL1        0.0275
     45 H          -2.3288   -1.9028    3.1932 H       1  UNL1        0.0271
     46 H          -3.5251   -2.2304    1.9007 H       1  UNL1        0.0271
     47 H          -0.9932    0.3461    2.8027 H       1  UNL1        0.0280
     48 H          -1.7841    1.6741    1.8632 H       1  UNL1        0.0280
     49 H          -4.7365    0.2861    0.5868 H       1  UNL1        0.0572
     50 H          -2.8219    0.2029   -1.1422 H       1  UNL1        0.0576
     51 H           1.8676   -0.0230    0.2708 H       1  UNL1        0.2107
     52 N           1.0704   -0.5365   -3.5908 N.4     1  UNL1        0.2353
     53 H           0.1675   -0.2662   -3.9980 H       1  UNL1        0.2033
@<TRIPOS>UNITY_ATOM_ATTR
52 1
charge 1
@<TRIPOS>BOND
     1     1     6   ar
     2     1     2   ar
     3     1    24    1
     4     2     3   ar
     5     2    25    1
     6     3     4   ar
     7     3    26    1
     8     4     5   ar
     9     4     7    1
    10     5     6   ar
    11     5    27    1
    12     6    28    1
    13     7     8    1
    14     7    15    1
    15     7    23    1
    16     8     9    1
    17     8    29    1
    18     8    30    1
    19     9    31    1
    20     9    32    1
    21     9    52    1
    22    10    11    1
    23    10    33    1
    24    10    34    1
    25    10    52    1
    26    11    12    1
    27    11    35    1
    28    11    36    1
    29    12    13    1
    30    12    37    1
    31    12    38    1
    32    13    14    1
    33    13    39    1
    34    13    40    1
    35    14    41    1
    36    14    42    1
    37    14    52    1
    38    15    20    1
    39    15    22    1
    40    15    16    1
    41    16    17    1
    42    16    43    1
    43    16    44    1
    44    17    18    1
    45    17    45    1
    46    17    46    1
    47    18    19    1
    48    18    20    1
    49    18    21    1
    50    20    47    1
    51    20    48    1
    52    21    22    2
    53    21    49    1
    54    22    50    1
    55    23    51    1
    56    52    53    1
