@<TRIPOS>MOLECULE
ZINC03871613
 43 45 0 0 0
SMALL
GASTEIGER

@<TRIPOS>ATOM
      1 C           5.7563    3.5281    1.6357 C.ar    1  UNL1        0.1205
      2 N           6.2172    3.1640    2.8187 N.ar    1  UNL1       -0.2188
      3 C           5.4155    2.6331    3.7359 C.ar    1  UNL1        0.1472
      4 C           4.0562    2.4649    3.4206 C.ar    1  UNL1        0.1473
      5 C           3.6165    2.8629    2.1470 C.ar    1  UNL1        0.1674
      6 N           4.4921    3.3895    1.2967 N.ar    1  UNL1       -0.2159
      7 N           2.2716    2.5944    2.1101 N.ar    1  UNL1       -0.2855
      8 C           1.9304    2.0504    3.3125 C.ar    1  UNL1        0.1004
      9 N           2.9788    1.9753    4.0799 N.ar    1  UNL1       -0.2306
     10 C           1.3690    2.8412    0.9829 C.3     1  UNL1        0.1667
     11 H           1.6550    3.7616    0.4739 H       1  UNL1        0.0866
     12 C           1.4258    1.6579   -0.0027 C.3     1  UNL1        0.1285
     13 H           2.1373    0.9077    0.3425 H       1  UNL1        0.0665
     14 C          -0.0127    1.0858    0.0080 C.3     1  UNL1        0.1135
     15 H           0.0021   -0.0041    0.0020 H       1  UNL1        0.0647
     16 C          -0.5663    1.6241    1.3520 C.3     1  UNL1        0.1133
     17 H          -0.2381    0.9970    2.1809 H       1  UNL1        0.0647
     18 O           0.0138    2.9425    1.4512 O.3     1  UNL1       -0.3456
     19 C          -2.0933    1.7090    1.3103 C.3     1  UNL1        0.0836
     20 O          -2.5841    2.0957    2.5955 O.3     1  UNL1       -0.3246
     21 P          -4.1507    2.2832    2.9158 P.3     1  UNL1        0.2182
     22 O          -4.7393    3.2427    1.9549 O.2     1  UNL1       -0.5170
     23 O          -4.3286    2.8464    4.4136 O.3     1  UNL1       -0.2702
     24 P          -5.5507    3.5183    5.2180 P.3     1  UNL1        0.2206
     25 O          -6.2784    4.4469    4.3243 O.2     1  UNL1       -0.5169
     26 O          -4.9775    4.3309    6.4842 O.3     1  UNL1       -0.3141
     27 P          -5.5966    5.4373    7.4766 P.3     1  UNL1       -0.0068
     28 O          -6.9557    5.0230    7.8909 O.2     1  UNL1       -0.6374
     29 O          -0.7699    1.5892   -1.0944 O.3     1  UNL1       -0.3864
     30 O           1.7743    2.1107   -1.3124 O.3     1  UNL1       -0.3847
     31 N           5.9074    2.2551    4.9729 N.pl3   1  UNL1       -0.3413
     32 H           6.4427    3.9552    0.9195 H       1  UNL1        0.1048
     33 H           0.9367    1.7292    3.5878 H       1  UNL1        0.1030
     34 H          -2.3960    2.4480    0.5684 H       1  UNL1        0.0591
     35 H          -2.5042    0.7357    1.0423 H       1  UNL1        0.0591
     36 H          -0.4342    1.3166   -1.9593 H       1  UNL1        0.2100
     37 H           1.7687    1.4147   -1.9837 H       1  UNL1        0.2101
     38 H           5.4351    2.7675    5.6901 H       1  UNL1        0.1438
     39 H           6.8476    2.3763    5.1786 H       1  UNL1        0.1438
     40 O          -4.8992    0.8639    2.7837 O.co2   1  UNL1       -0.4371
     41 O          -6.5544    2.3676    5.7284 O.co2   1  UNL1       -0.4370
     42 O          -4.6581    5.5767    8.7773 O.co2   1  UNL1       -0.5767
     43 O          -5.6757    6.8548    6.7174 O.co2   1  UNL1       -0.5767
@<TRIPOS>UNITY_ATOM_ATTR
40 1
charge -1
41 1
charge -1
42 1
charge -1
43 1
charge -1
@<TRIPOS>BOND
     1     1     6   ar
     2     1     2   ar
     3     1    32    1
     4     2     3   ar
     5     3     4   ar
     6     3    31    1
     7     4     9   ar
     8     4     5   ar
     9     5     6   ar
    10     5     7   ar
    11     7     8   ar
    12     7    10    1
    13     8     9   ar
    14     8    33    1
    15    10    11    1
    16    10    18    1
    17    10    12    1
    18    12    13    1
    19    12    14    1
    20    12    30    1
    21    14    15    1
    22    14    16    1
    23    14    29    1
    24    16    17    1
    25    16    18    1
    26    16    19    1
    27    19    20    1
    28    19    34    1
    29    19    35    1
    30    20    21    1
    31    21    22    2
    32    21    23    1
    33    21    40    1
    34    23    24    1
    35    24    25    2
    36    24    26    1
    37    24    41    1
    38    26    27    1
    39    27    28    2
    40    27    42    1
    41    27    43    1
    42    29    36    1
    43    30    37    1
    44    31    38    1
    45    31    39    1
