@<TRIPOS>MOLECULE
ZINC00056556
 41 42 0 0 0
SMALL
GASTEIGER

@<TRIPOS>ATOM
      1 C          -9.6765    3.8393    0.9680 C.3     1  UNL1       -0.0219
      2 C          -8.5668    2.9897    0.3454 C.3     1  UNL1       -0.0283
      3 C          -9.0076    2.5098   -1.0389 C.3     1  UNL1       -0.0219
      4 C          -6.1502    2.9427    0.2027 C.3     1  UNL1       -0.0035
      5 C          -4.9013    3.8164    0.0692 C.3     1  UNL1        0.1285
      6 H          -4.8465    4.5033    0.9138 H       1  UNL1        0.0681
      7 C          -3.6562    2.9274    0.0532 C.3     1  UNL1        0.1204
      8 O          -2.4857    3.7471    0.0459 O.3     1  UNL1       -0.4886
      9 C          -1.2867    3.1096    0.0315 C.ar    1  UNL1        0.1283
     10 C          -1.2335    1.7440    0.0174 C.ar    1  UNL1       -0.0193
     11 C          -0.0126    1.0758    0.0080 C.ar    1  UNL1       -0.0577
     12 C           1.1637    1.7618    0.0004 C.ar    1  UNL1       -0.0538
     13 C           1.1521    3.1670    0.0080 C.ar    1  UNL1       -0.0144
     14 C          -0.0883    3.8519    0.0236 C.ar    1  UNL1        0.0238
     15 C          -0.1002    5.2560    0.0304 C.ar    1  UNL1       -0.0505
     16 C           1.0769    5.9397    0.0224 C.ar    1  UNL1       -0.0611
     17 C           2.2972    5.2668    0.0074 C.ar    1  UNL1       -0.0612
     18 C           2.3471    3.9067    0.0001 C.ar    1  UNL1       -0.0539
     19 O          -4.9697    4.5624   -1.1477 O.3     1  UNL1       -0.3831
     20 H          -9.8751    4.7011    0.3308 H       1  UNL1        0.0284
     21 H         -10.5826    3.2408    1.0624 H       1  UNL1        0.0284
     22 H          -9.3624    4.1812    1.9542 H       1  UNL1        0.0284
     23 H          -8.3682    2.1279    0.9825 H       1  UNL1        0.0845
     24 H          -8.2170    1.9045   -1.4824 H       1  UNL1        0.0284
     25 H          -9.9137    1.9113   -0.9444 H       1  UNL1        0.0284
     26 H          -9.2062    3.3716   -1.6760 H       1  UNL1        0.0284
     27 H          -6.2050    2.2558   -0.6419 H       1  UNL1        0.0841
     28 H          -6.0980    2.3737    1.1309 H       1  UNL1        0.0841
     29 H          -3.6676    2.3023   -0.8397 H       1  UNL1        0.0725
     30 H          -3.6506    2.2939    0.9402 H       1  UNL1        0.0725
     31 H          -2.1517    1.1754    0.0187 H       1  UNL1        0.0654
     32 H           0.0021   -0.0041    0.0020 H       1  UNL1        0.0619
     33 H           2.1024    1.2278   -0.0118 H       1  UNL1        0.0624
     34 H          -1.0385    5.7907    0.0417 H       1  UNL1        0.0625
     35 H           1.0649    7.0197    0.0273 H       1  UNL1        0.0618
     36 H           3.2169    5.8329    0.0013 H       1  UNL1        0.0618
     37 H           3.3000    3.3985   -0.0122 H       1  UNL1        0.0624
     38 H          -5.0207    4.0142   -1.9427 H       1  UNL1        0.2102
     39 N          -7.3454    3.8069    0.2174 N.4     1  UNL1        0.2307
     40 H          -7.2859    4.4538    1.0125 H       1  UNL1        0.2017
     41 H          -7.3867    4.3428   -0.6575 H       1  UNL1        0.2017
@<TRIPOS>UNITY_ATOM_ATTR
39 1
charge 1
@<TRIPOS>BOND
     1     1     2    1
     2     1    20    1
     3     1    21    1
     4     1    22    1
     5     2     3    1
     6     2    23    1
     7     2    39    1
     8     3    24    1
     9     3    25    1
    10     3    26    1
    11     4     5    1
    12     4    27    1
    13     4    28    1
    14     4    39    1
    15     5     6    1
    16     5     7    1
    17     5    19    1
    18     7     8    1
    19     7    29    1
    20     7    30    1
    21     8     9    1
    22     9    14   ar
    23     9    10   ar
    24    10    11   ar
    25    10    31    1
    26    11    12   ar
    27    11    32    1
    28    12    13   ar
    29    12    33    1
    30    13    18   ar
    31    13    14   ar
    32    14    15   ar
    33    15    16   ar
    34    15    34    1
    35    16    17   ar
    36    16    35    1
    37    17    18   ar
    38    17    36    1
    39    18    37    1
    40    19    38    1
    41    39    40    1
    42    39    41    1
