@<TRIPOS>MOLECULE
ZINC00000096
 39 40 0 0 0
SMALL
GASTEIGER

@<TRIPOS>ATOM
      1 C           4.3992   -2.4688   -3.9516 C.3     1  UNL1       -0.0433
      2 C           2.0228   -2.4387   -4.4145 C.3     1  UNL1       -0.0433
      3 C           2.8410   -1.7619   -2.2385 C.3     1  UNL1       -0.0315
      4 C           3.8739   -0.8756   -1.5396 C.3     1  UNL1       -0.0003
      5 C           3.5820   -0.8390   -0.0381 C.3     1  UNL1        0.0312
      6 H           3.5486   -1.8568    0.3505 H       1  UNL1        0.0414
      7 C           4.6683   -0.0677    0.6662 C.ar    1  UNL1       -0.0382
      8 C           4.9804    1.2156    0.2580 C.ar    1  UNL1       -0.0569
      9 C           5.9735    1.9251    0.9068 C.ar    1  UNL1       -0.0475
     10 C           6.6621    1.3470    1.9579 C.ar    1  UNL1        0.0179
     11 C           6.3531    0.0609    2.3626 C.ar    1  UNL1       -0.0475
     12 C           5.3563   -0.6459    1.7166 C.ar    1  UNL1       -0.0569
     13 BR          8.0262    2.3143    2.8409 Br      1  UNL1       -0.0503
     14 C           2.2541   -0.1669    0.1992 C.ar    1  UNL1        0.0488
     15 C           1.8724    0.8933   -0.6013 C.ar    1  UNL1       -0.0398
     16 C           0.6486    1.5040   -0.3753 C.ar    1  UNL1       -0.0586
     17 C          -0.1490    1.0235    0.6524 C.ar    1  UNL1       -0.0436
     18 C           0.2995   -0.0404    1.4116 C.ar    1  UNL1        0.0279
     19 N           1.4698   -0.5973    1.1677 N.ar    1  UNL1       -0.2593
     20 H           4.3583   -3.4921   -3.5785 H       1  UNL1        0.0777
     21 H           4.5822   -2.4809   -5.0261 H       1  UNL1        0.0777
     22 H           5.2054   -1.9318   -3.4518 H       1  UNL1        0.0777
     23 H           1.1013   -1.8798   -4.2512 H       1  UNL1        0.0777
     24 H           2.2562   -2.4514   -5.4792 H       1  UNL1        0.0777
     25 H           1.8958   -3.4609   -4.0581 H       1  UNL1        0.0777
     26 H           2.8954   -2.7722   -1.8330 H       1  UNL1        0.0814
     27 H           1.8428   -1.3569   -2.0722 H       1  UNL1        0.0814
     28 H           3.8196    0.1347   -1.9450 H       1  UNL1        0.0326
     29 H           4.8721   -1.2806   -1.7058 H       1  UNL1        0.0326
     30 H           4.4455    1.6654   -0.5654 H       1  UNL1        0.0621
     31 H           6.2142    2.9294    0.5907 H       1  UNL1        0.0629
     32 H           6.8908   -0.3911    3.1830 H       1  UNL1        0.0629
     33 H           5.1152   -1.6502    2.0323 H       1  UNL1        0.0621
     34 H           2.5194    1.2416   -1.3929 H       1  UNL1        0.0636
     35 H           0.3240    2.3342   -0.9850 H       1  UNL1        0.0619
     36 H          -1.1104    1.4723    0.8539 H       1  UNL1        0.0633
     37 H          -0.3157   -0.4205    2.2138 H       1  UNL1        0.0829
     38 N           3.1235   -1.7700   -3.6893 N.4     1  UNL1        0.2309
     39 H           3.2002   -0.8008   -4.0195 H       1  UNL1        0.2028
@<TRIPOS>UNITY_ATOM_ATTR
38 1
charge 1
@<TRIPOS>BOND
     1     1    20    1
     2     1    21    1
     3     1    22    1
     4     1    38    1
     5     2    23    1
     6     2    24    1
     7     2    25    1
     8     2    38    1
     9     3     4    1
    10     3    26    1
    11     3    27    1
    12     3    38    1
    13     4     5    1
    14     4    28    1
    15     4    29    1
    16     5     6    1
    17     5     7    1
    18     5    14    1
    19     7    12   ar
    20     7     8   ar
    21     8     9   ar
    22     8    30    1
    23     9    10   ar
    24     9    31    1
    25    10    11   ar
    26    10    13    1
    27    11    12   ar
    28    11    32    1
    29    12    33    1
    30    14    19   ar
    31    14    15   ar
    32    15    16   ar
    33    15    34    1
    34    16    17   ar
    35    16    35    1
    36    17    18   ar
    37    17    36    1
    38    18    19   ar
    39    18    37    1
    40    38    39    1
