@<TRIPOS>MOLECULE
ZINC03830863
 55 57 0 0 0
SMALL
GASTEIGER

@<TRIPOS>ATOM
      1 C          -2.9357    1.0368   -0.6744 C.3     1  UNL1       -0.0445
      2 C          -2.4644    2.0175    0.4013 C.3     1  UNL1        0.0295
      3 C          -2.6463    1.3853    1.7827 C.3     1  UNL1       -0.0445
      4 N          -1.0490    2.3307    0.1902 N.ar    1  UNL1       -0.3372
      5 C          -0.0259    1.4068    0.2003 C.ar    1  UNL1        0.0503
      6 C           0.0032    0.0282    0.3911 C.ar    1  UNL1       -0.0376
      7 C           1.2036   -0.6459    0.3385 C.ar    1  UNL1       -0.0598
      8 C           2.3883    0.0356    0.0961 C.ar    1  UNL1       -0.0611
      9 C           2.3827    1.3888   -0.0945 C.ar    1  UNL1       -0.0520
     10 C           1.1775    2.0916   -0.0444 C.ar    1  UNL1        0.0082
     11 C           0.8231    3.5091   -0.2015 C.ar    1  UNL1        0.0147
     12 C          -0.5473    3.5901   -0.0448 C.ar    1  UNL1        0.0507
     13 C          -1.3421    4.8229   -0.1217 C.2     1  UNL1       -0.0391
     14 C          -1.0595    5.8481    0.6790 C.2     1  UNL1       -0.0539
     15 C          -1.9459    7.0669    0.6842 C.3     1  UNL1        0.0761
     16 H          -1.3853    7.9254    0.3144 H       1  UNL1        0.0638
     17 C          -2.4222    7.3450    2.1113 C.3     1  UNL1        0.0032
     18 C          -3.2188    8.6510    2.1377 C.3     1  UNL1        0.0629
     19 H          -4.0300    8.5965    1.4116 H       1  UNL1        0.0598
     20 C          -3.8001    8.8657    3.5366 C.3     1  UNL1        0.0130
     21 C          -4.6846   10.0857    3.5312 C.2     1  UNL1        0.0442
     22 O          -4.8348   10.7186    2.5130 O.co2   1  UNL1       -0.5497
     23 O          -2.3565    9.7417    1.8076 O.3     1  UNL1       -0.3913
     24 O          -3.0765    6.8371   -0.1590 O.3     1  UNL1       -0.3877
     25 C           1.7508    4.6288   -0.4746 C.ar    1  UNL1       -0.0151
     26 C           1.6864    5.3110   -1.6904 C.ar    1  UNL1       -0.0512
     27 C           2.5505    6.3572   -1.9379 C.ar    1  UNL1       -0.0259
     28 C           3.4884    6.7244   -0.9862 C.ar    1  UNL1        0.1234
     29 C           3.5602    6.0470    0.2205 C.ar    1  UNL1       -0.0259
     30 C           2.6973    5.0027    0.4804 C.ar    1  UNL1       -0.0512
     31 F           4.3355    7.7468   -1.2356 F       1  UNL1       -0.2055
     32 H          -3.9888    0.8037   -0.5173 H       1  UNL1        0.0249
     33 H          -2.8061    1.4872   -1.6585 H       1  UNL1        0.0249
     34 H          -2.3479    0.1209   -0.6137 H       1  UNL1        0.0249
     35 H          -3.0523    2.9334    0.3406 H       1  UNL1        0.0522
     36 H          -2.3106    2.0840    2.5490 H       1  UNL1        0.0249
     37 H          -3.6995    1.1522    1.9398 H       1  UNL1        0.0249
     38 H          -2.0585    0.4694    1.8434 H       1  UNL1        0.0249
     39 H          -0.9130   -0.5116    0.5796 H       1  UNL1        0.0638
     40 H           1.2230   -1.7155    0.4869 H       1  UNL1        0.0618
     41 H           3.3210   -0.5074    0.0576 H       1  UNL1        0.0618
     42 H           3.3079    1.9130   -0.2833 H       1  UNL1        0.0624
     43 H          -2.1557    4.8977   -0.8280 H       1  UNL1        0.0636
     44 H          -0.1949    5.8065    1.3250 H       1  UNL1        0.0598
     45 H          -3.0567    6.5255    2.4488 H       1  UNL1        0.0318
     46 H          -1.5595    7.4323    2.7718 H       1  UNL1        0.0318
     47 H          -4.3864    7.9930    3.8243 H       1  UNL1        0.0350
     48 H          -2.9880    9.0088    4.2494 H       1  UNL1        0.0350
     49 H          -1.6104    9.8503    2.4130 H       1  UNL1        0.2098
     50 H          -3.6224    6.0861    0.1110 H       1  UNL1        0.2102
     51 H           0.9585    5.0229   -2.4344 H       1  UNL1        0.0624
     52 H           2.4985    6.8887   -2.8766 H       1  UNL1        0.0646
     53 H           4.2932    6.3370    0.9587 H       1  UNL1        0.0646
     54 H           2.7543    4.4752    1.4211 H       1  UNL1        0.0624
     55 O          -5.3057   10.4694    4.6576 O.co2   1  UNL1       -0.5497
@<TRIPOS>UNITY_ATOM_ATTR
55 1
charge -1
@<TRIPOS>BOND
     1     1     2    1
     2     1    32    1
     3     1    33    1
     4     1    34    1
     5     2     3    1
     6     2     4    1
     7     2    35    1
     8     3    36    1
     9     3    37    1
    10     3    38    1
    11     4    12   ar
    12     4     5   ar
    13     5    10   ar
    14     5     6   ar
    15     6     7   ar
    16     6    39    1
    17     7     8   ar
    18     7    40    1
    19     8     9   ar
    20     8    41    1
    21     9    10   ar
    22     9    42    1
    23    10    11   ar
    24    11    12   ar
    25    11    25    1
    26    12    13    1
    27    13    14    2
    28    13    43    1
    29    14    15    1
    30    14    44    1
    31    15    16    1
    32    15    17    1
    33    15    24    1
    34    17    18    1
    35    17    45    1
    36    17    46    1
    37    18    19    1
    38    18    20    1
    39    18    23    1
    40    20    21    1
    41    20    47    1
    42    20    48    1
    43    21    22   ar
    44    21    55   ar
    45    23    49    1
    46    24    50    1
    47    25    30   ar
    48    25    26   ar
    49    26    27   ar
    50    26    51    1
    51    27    28   ar
    52    27    52    1
    53    28    29   ar
    54    28    31    1
    55    29    30   ar
    56    29    53    1
    57    30    54    1
