@<TRIPOS>MOLECULE
ZINC01482164
 31 31 0 0 0
SMALL
GASTEIGER

@<TRIPOS>ATOM
      1 C           3.5725    1.6690   -1.2509 C.3     1  UNL1       -0.0623
      2 C           2.1388    1.1351   -1.2433 C.3     1  UNL1       -0.0415
      3 H           2.1569    0.0452   -1.2433 H       1  UNL1        0.0299
      4 C           1.4026    1.6329   -2.4888 C.3     1  UNL1       -0.0500
      5 C          -0.0312    1.0990   -2.4812 C.3     1  UNL1       -0.0474
      6 C          -0.7543    1.5970   -1.2282 C.3     1  UNL1       -0.0126
      7 H          -0.7724    2.6869   -1.2282 H       1  UNL1        0.0328
      8 C          -0.0181    1.0992    0.0172 C.3     1  UNL1        0.0585
      9 H           0.0000    0.0093    0.0172 H       1  UNL1        0.0596
     10 C           1.4157    1.6331    0.0097 C.3     1  UNL1       -0.0240
     11 O          -0.6935    1.5643    1.1875 O.3     1  UNL1       -0.3915
     12 C          -2.1881    1.0631   -1.2207 C.3     1  UNL1       -0.0415
     13 C          -2.9642    1.6691   -2.3917 C.3     1  UNL1       -0.0623
     14 C          -2.1656   -0.4606   -1.3578 C.3     1  UNL1       -0.0623
     15 H           4.0970    1.3143   -0.3636 H       1  UNL1        0.0232
     16 H           4.0877    1.3142   -2.1435 H       1  UNL1        0.0232
     17 H           3.5544    2.7589   -1.2509 H       1  UNL1        0.0232
     18 H           1.3844    2.7227   -2.4888 H       1  UNL1        0.0268
     19 H           1.9177    1.2781   -3.3814 H       1  UNL1        0.0268
     20 H          -0.5557    1.4536   -3.3685 H       1  UNL1        0.0269
     21 H          -0.0131    0.0091   -2.4812 H       1  UNL1        0.0269
     22 H           1.3975    2.7230    0.0097 H       1  UNL1        0.0293
     23 H           1.9401    1.2785    0.8970 H       1  UNL1        0.0293
     24 H          -0.2809    1.2858    2.0166 H       1  UNL1        0.2098
     25 H          -2.6727    1.3364   -0.2833 H       1  UNL1        0.0299
     26 H          -2.5352    1.3204   -3.3311 H       1  UNL1        0.0232
     27 H          -4.0085    1.3624   -2.3331 H       1  UNL1        0.0232
     28 H          -2.9017    2.7563   -2.3451 H       1  UNL1        0.0232
     29 H          -1.6127   -0.8924   -0.5235 H       1  UNL1        0.0232
     30 H          -3.1871   -0.8410   -1.3524 H       1  UNL1        0.0232
     31 H          -1.6811   -0.7340   -2.2951 H       1  UNL1        0.0232
@<TRIPOS>BOND
     1     1     2    1
     2     1    15    1
     3     1    16    1
     4     1    17    1
     5     2     3    1
     6     2    10    1
     7     2     4    1
     8     4     5    1
     9     4    18    1
    10     4    19    1
    11     5     6    1
    12     5    20    1
    13     5    21    1
    14     6     7    1
    15     6     8    1
    16     6    12    1
    17     8     9    1
    18     8    10    1
    19     8    11    1
    20    10    22    1
    21    10    23    1
    22    11    24    1
    23    12    13    1
    24    12    14    1
    25    12    25    1
    26    13    26    1
    27    13    27    1
    28    13    28    1
    29    14    29    1
    30    14    30    1
    31    14    31    1
