@<TRIPOS>MOLECULE
ZINC03831174
 62 64 0 0 0
SMALL
GASTEIGER

@<TRIPOS>ATOM
      1 C           3.1080    4.0525    5.8993 C.3     1  UNL1       -0.0245
      2 C           2.1401    4.2192    4.7261 C.3     1  UNL1       -0.0347
      3 C           4.0107    4.6476    3.2497 C.3     1  UNL1       -0.0347
      4 C           3.6080    6.1171    3.1105 C.3     1  UNL1       -0.0245
      5 C           3.1419    2.3995    3.4821 C.3     1  UNL1        0.0032
      6 C           1.8513    1.5779    3.4721 C.3     1  UNL1        0.1320
      7 O           1.1425    1.8053    2.2254 O.3     1  UNL1       -0.4591
      8 C          -0.0187    1.1533    2.0570 C.2     1  UNL1        0.3108
      9 O          -0.4292    0.4170    2.9225 O.2     1  UNL1       -0.2505
     10 C          -0.8103    1.3397    0.7882 C.3     1  UNL1        0.0627
     11 H          -1.0799    2.3902    0.6792 H       1  UNL1        0.0417
     12 C          -2.0816    0.4907    0.8509 C.3     1  UNL1       -0.0141
     13 C          -2.9753    1.0050    1.9500 C.ar    1  UNL1       -0.0389
     14 C          -3.0264    0.3607    3.1481 C.ar    1  UNL1       -0.0580
     15 C          -3.8463    0.8216    4.1760 C.ar    1  UNL1       -0.0609
     16 C          -4.6201    1.9295    4.0121 C.ar    1  UNL1       -0.0540
     17 C          -4.5940    2.6210    2.7894 C.ar    1  UNL1       -0.0176
     18 C          -3.7558    2.1552    1.7454 C.ar    1  UNL1       -0.0147
     19 C          -3.7253    2.8504    0.5243 C.ar    1  UNL1       -0.0538
     20 C          -4.4947    3.9611    0.3624 C.ar    1  UNL1       -0.0612
     21 C          -5.3146    4.4223    1.3909 C.ar    1  UNL1       -0.0612
     22 C          -5.3784    3.7688    2.5829 C.ar    1  UNL1       -0.0540
     23 C           0.0358    0.9033   -0.4095 C.3     1  UNL1       -0.0134
     24 C          -0.6928    1.2618   -1.7063 C.3     1  UNL1        0.0595
     25 H          -0.9400    2.3233   -1.7196 H       1  UNL1        0.0596
     26 C           0.1803    0.8954   -2.9327 C.3     1  UNL1       -0.0245
     27 C          -0.9080    0.7140   -4.0257 C.3     1  UNL1       -0.0271
     28 C          -2.0872    0.1282   -3.2199 C.3     1  UNL1        0.0481
     29 O          -1.8839    0.4708   -1.8440 O.3     1  UNL1       -0.3765
     30 H           3.4910    3.0321    5.9121 H       1  UNL1        0.0281
     31 H           3.9376    4.7506    5.7879 H       1  UNL1        0.0281
     32 H           2.5848    4.2559    6.8337 H       1  UNL1        0.0281
     33 H           1.8250    5.2606    4.6602 H       1  UNL1        0.0812
     34 H           1.2675    3.5849    4.8820 H       1  UNL1        0.0812
     35 H           4.6926    4.5360    4.0927 H       1  UNL1        0.0812
     36 H           4.5055    4.3183    2.3360 H       1  UNL1        0.0812
     37 H           2.8555    6.2151    2.3281 H       1  UNL1        0.0281
     38 H           3.1978    6.4725    4.0557 H       1  UNL1        0.0281
     39 H           4.4840    6.7106    2.8485 H       1  UNL1        0.0281
     40 H           3.7170    2.1617    4.3770 H       1  UNL1        0.0848
     41 H           3.7316    2.1606    2.5971 H       1  UNL1        0.0848
     42 H           1.2214    1.8806    4.3086 H       1  UNL1        0.0752
     43 H           2.0937    0.5193    3.5643 H       1  UNL1        0.0752
     44 H          -2.6065    0.5515   -0.1024 H       1  UNL1        0.0321
     45 H          -1.8161   -0.5467    1.0541 H       1  UNL1        0.0321
     46 H          -2.4220   -0.5206    3.3043 H       1  UNL1        0.0620
     47 H          -3.8685    0.2917    5.1168 H       1  UNL1        0.0618
     48 H          -5.2505    2.2753    4.8180 H       1  UNL1        0.0624
     49 H          -3.0947    2.5046   -0.2815 H       1  UNL1        0.0624
     50 H          -4.4693    4.4934   -0.5769 H       1  UNL1        0.0618
     51 H          -5.9150    5.3067    1.2364 H       1  UNL1        0.0618
     52 H          -6.0189    4.1374    3.3705 H       1  UNL1        0.0624
     53 H           0.1954   -0.1741   -0.3684 H       1  UNL1        0.0298
     54 H           0.9980    1.4145   -0.3802 H       1  UNL1        0.0298
     55 H           0.8611    1.7078   -3.1871 H       1  UNL1        0.0291
     56 H           0.7256   -0.0331   -2.7634 H       1  UNL1        0.0291
     57 H          -0.5755    0.0134   -4.7917 H       1  UNL1        0.0288
     58 H          -1.1782    1.6733   -4.4670 H       1  UNL1        0.0288
     59 H          -2.1092   -0.9559   -3.3316 H       1  UNL1        0.0560
     60 H          -3.0261    0.5552   -3.5724 H       1  UNL1        0.0560
     61 N           2.7931    3.8356    3.4568 N.4     1  UNL1        0.2372
     62 H           2.1420    4.0071    2.6817 H       1  UNL1        0.2034
@<TRIPOS>UNITY_ATOM_ATTR
61 1
charge 1
@<TRIPOS>BOND
     1     1     2    1
     2     1    30    1
     3     1    31    1
     4     1    32    1
     5     2    33    1
     6     2    34    1
     7     2    61    1
     8     3     4    1
     9     3    35    1
    10     3    36    1
    11     3    61    1
    12     4    37    1
    13     4    38    1
    14     4    39    1
    15     5     6    1
    16     5    40    1
    17     5    41    1
    18     5    61    1
    19     6     7    1
    20     6    42    1
    21     6    43    1
    22     7     8    1
    23     8     9    2
    24     8    10    1
    25    10    11    1
    26    10    12    1
    27    10    23    1
    28    12    13    1
    29    12    44    1
    30    12    45    1
    31    13    18   ar
    32    13    14   ar
    33    14    15   ar
    34    14    46    1
    35    15    16   ar
    36    15    47    1
    37    16    17   ar
    38    16    48    1
    39    17    22   ar
    40    17    18   ar
    41    18    19   ar
    42    19    20   ar
    43    19    49    1
    44    20    21   ar
    45    20    50    1
    46    21    22   ar
    47    21    51    1
    48    22    52    1
    49    23    24    1
    50    23    53    1
    51    23    54    1
    52    24    25    1
    53    24    29    1
    54    24    26    1
    55    26    27    1
    56    26    55    1
    57    26    56    1
    58    27    28    1
    59    27    57    1
    60    27    58    1
    61    28    29    1
    62    28    59    1
    63    28    60    1
    64    61    62    1
