@<TRIPOS>MOLECULE
ZINC00001715
 15 15 0 0 0
SMALL
GASTEIGER

@<TRIPOS>ATOM
      1 C          -1.2905   -0.7788    0.0107 C.3     1  UNL1       -0.0242
      2 C           0.0021   -0.0041    0.0020 C.ar    1  UNL1        0.0200
      3 C           1.1842   -0.6569   -0.0128 C.ar    1  UNL1        0.0217
      4 C           2.3852    0.0931   -0.0203 C.ar    1  UNL1        0.2522
      5 O           3.4633   -0.4731   -0.0341 O.2     1  UNL1       -0.2678
      6 N           2.3239    1.4401   -0.0125 N.ar    1  UNL1       -0.3028
      7 H           3.1422    1.9609   -0.0172 H       1  UNL1        0.1708
      8 C           1.1318    2.0648    0.0023 C.ar    1  UNL1        0.1581
      9 S           1.0757    3.7758    0.0115 S.2     1  UNL1       -0.0130
     10 N          -0.0165    1.3636    0.0095 N.ar    1  UNL1       -0.3390
     11 H          -0.8656    1.8325    0.0161 H       1  UNL1        0.1675
     12 H          -1.6124   -0.9601   -1.0147 H       1  UNL1        0.0292
     13 H          -1.1396   -1.7317    0.5180 H       1  UNL1        0.0292
     14 H          -2.0545   -0.2050    0.5353 H       1  UNL1        0.0292
     15 H           1.2131   -1.7365   -0.0185 H       1  UNL1        0.0689
@<TRIPOS>BOND
     1     1     2    1
     2     1    12    1
     3     1    13    1
     4     1    14    1
     5     2    10   ar
     6     2     3   ar
     7     3     4   ar
     8     3    15    1
     9     4     5    2
    10     4     6   ar
    11     6     7    1
    12     6     8   ar
    13     8     9    2
    14     8    10   ar
    15    10    11    1
