@<TRIPOS>MOLECULE
ZINC11592790
 55 58 0 0 0
SMALL
GASTEIGER

@<TRIPOS>ATOM
      1 C           1.3401    6.5099    2.1559 C.3     1  UNL1       -0.0426
      2 C          -0.5484    5.9039    3.5447 C.3     1  UNL1       -0.0426
      3 C          -0.7172    5.7437    1.1346 C.3     1  UNL1        0.0465
      4 H          -1.6641    5.2557    1.3656 H       1  UNL1        0.0939
      5 C          -0.0723    5.0362   -0.0595 C.3     1  UNL1        0.0791
      6 H           0.9667    5.3426   -0.1805 H       1  UNL1        0.0423
      7 C          -0.1631    3.5189    0.1982 C.3     1  UNL1        0.0781
      8 H           0.0925    2.9732   -0.7101 H       1  UNL1        0.0609
      9 C          -1.6040    3.2081    0.6097 C.3     1  UNL1        0.0427
     10 H          -1.8191    3.6892    1.5638 H       1  UNL1        0.0425
     11 C          -1.7841    1.7141    0.7509 C.2     1  UNL1       -0.0364
     12 C          -0.7398    0.8965    0.8062 C.2     1  UNL1       -0.0942
     13 C          -3.1687    1.1979    0.8314 C.ar    1  UNL1       -0.0074
     14 C          -3.4630    0.0231    1.5098 C.ar    1  UNL1       -0.0534
     15 C          -4.7685   -0.4317    1.5607 C.ar    1  UNL1       -0.0577
     16 C          -5.7837    0.2749    0.9420 C.ar    1  UNL1       -0.0194
     17 C          -5.5114    1.4521    0.2600 C.ar    1  UNL1        0.1282
     18 C          -4.1970    1.9272    0.1992 C.ar    1  UNL1        0.0708
     19 C          -3.8737    3.1751   -0.5110 C.2     1  UNL1        0.1972
     20 O          -4.7334    3.7431   -1.1610 O.2     1  UNL1       -0.2867
     21 C          -2.5612    3.7211   -0.4421 C.2     1  UNL1        0.0503
     22 C          -2.2148    4.6930   -1.2964 C.2     1  UNL1        0.1412
     23 C          -0.8696    5.3320   -1.3288 C.3     1  UNL1        0.1960
     24 C          -0.9434    6.8177   -1.5378 C.2     1  UNL1        0.2109
     25 O          -0.8837    7.2882   -2.6551 O.2     1  UNL1       -0.2882
     26 C          -1.0962    7.7027   -0.4052 C.2     1  UNL1        0.1248
     27 C          -0.9715    7.1935    0.8636 C.2     1  UNL1        0.1579
     28 O          -1.0827    8.0312    1.9051 O.2     1  UNL1       -0.5050
     29 C          -1.3825    9.1324   -0.6039 C.2     1  UNL1        0.2485
     30 O          -2.5215    9.5001   -0.8210 O.2     1  UNL1       -0.2702
     31 N          -0.3828   10.0343   -0.5455 N.am    1  UNL1       -0.3252
     32 O          -0.1509    4.7747   -2.4311 O.3     1  UNL1       -0.3730
     33 O          -3.1394    5.1182   -2.1806 O.2     1  UNL1       -0.5072
     34 O          -6.5139    2.1386   -0.3437 O.3     1  UNL1       -0.5060
     35 O           0.7290    3.1514    1.2523 O.3     1  UNL1       -0.3902
     36 H           1.0127    7.5495    2.1733 H       1  UNL1        0.0778
     37 H           2.0313    6.3329    2.9799 H       1  UNL1        0.0778
     38 H           1.8412    6.3026    1.2104 H       1  UNL1        0.0778
     39 H          -1.3328    5.1598    3.6831 H       1  UNL1        0.0778
     40 H           0.1458    5.8603    4.3839 H       1  UNL1        0.0778
     41 H          -0.9947    6.8970    3.4935 H       1  UNL1        0.0778
     42 H          -0.8858   -0.1524    1.0179 H       1  UNL1        0.0538
     43 H           0.2555    1.2794    0.6351 H       1  UNL1        0.0538
     44 H          -2.6756   -0.5340    1.9957 H       1  UNL1        0.0624
     45 H          -4.9969   -1.3460    2.0882 H       1  UNL1        0.0619
     46 H          -6.7978   -0.0933    0.9897 H       1  UNL1        0.0654
     47 H          -1.2502    8.9586    1.5705 H       1  UNL1        0.2919
     48 H           0.5346    9.7357   -0.4449 H       1  UNL1        0.1453
     49 H          -0.5806   10.9821   -0.6041 H       1  UNL1        0.1453
     50 H          -0.5734    4.9181   -3.2890 H       1  UNL1        0.2113
     51 H          -2.7477    5.8400   -2.7513 H       1  UNL1        0.2918
     52 H          -6.6725    1.8774   -1.2612 H       1  UNL1        0.2922
     53 H           1.6465    3.4169    1.1016 H       1  UNL1        0.2098
     54 N           0.1840    5.5999    2.2973 N.4     1  UNL1        0.2389
     55 H           0.5243    4.6321    2.3379 H       1  UNL1        0.2035
@<TRIPOS>UNITY_ATOM_ATTR
54 1
charge 1
@<TRIPOS>BOND
     1     1    36    1
     2     1    37    1
     3     1    38    1
     4     1    54    1
     5     2    39    1
     6     2    40    1
     7     2    41    1
     8     2    54    1
     9     3     4    1
    10     3    27    1
    11     3     5    1
    12     3    54    1
    13     5     6    1
    14     5    23    1
    15     5     7    1
    16     7     8    1
    17     7     9    1
    18     7    35    1
    19     9    10    1
    20     9    21    1
    21     9    11    1
    22    11    12    2
    23    11    13    1
    24    12    42    1
    25    12    43    1
    26    13    18   ar
    27    13    14   ar
    28    14    15   ar
    29    14    44    1
    30    15    16   ar
    31    15    45    1
    32    16    17   ar
    33    16    46    1
    34    17    18   ar
    35    17    34    1
    36    18    19    1
    37    19    20    2
    38    19    21    1
    39    21    22    2
    40    22    23    1
    41    22    33    1
    42    23    24    1
    43    23    32    1
    44    24    25    2
    45    24    26    1
    46    26    27    2
    47    26    29    1
    48    27    28    1
    49    28    47    1
    50    29    30    2
    51    29    31   am
    52    31    48    1
    53    31    49    1
    54    32    50    1
    55    33    51    1
    56    34    52    1
    57    35    53    1
    58    54    55    1
