@<TRIPOS>MOLECULE
ZINC04676424
 41 43 0 0 0
SMALL
GASTEIGER

@<TRIPOS>ATOM
      1 C          -6.7227    2.7510   -1.0859 C.3     1  UNL1        0.0790
      2 O          -5.3614    3.1551   -0.9263 O.3     1  UNL1       -0.4913
      3 C          -4.4068    2.2920   -1.3611 C.ar    1  UNL1        0.1647
      4 C          -4.7545    1.0729   -1.9335 C.ar    1  UNL1        0.0018
      5 C          -3.7554    0.2223   -2.3629 C.ar    1  UNL1        0.0316
      6 N          -2.4843    0.5536   -2.2414 N.ar    1  UNL1       -0.2551
      7 C          -2.1106    1.6976   -1.6999 C.ar    1  UNL1        0.0990
      8 C          -3.0509    2.6055   -1.2445 C.ar    1  UNL1        0.1837
      9 O          -2.6603    3.7851   -0.6915 O.3     1  UNL1       -0.4898
     10 C          -2.5013    4.8955   -1.5768 C.3     1  UNL1        0.0790
     11 C          -0.6436    2.0217   -1.5815 C.3     1  UNL1        0.0767
     12 S          -0.0172    1.4168    0.0098 S.O     1  UNL1        0.0955
     13 O           0.0021   -0.0041    0.0020 O.2     1  UNL1       -0.2488
     14 C           1.6865    1.8663   -0.0040 C.ar    1  UNL1        0.1981
     15 N           2.6956    1.0845   -0.4774 N.ar    1  UNL1       -0.3309
     16 H           2.6024    0.1693   -0.8695 H       1  UNL1        0.1679
     17 C           3.8715    1.7897   -0.3157 C.ar    1  UNL1        0.0704
     18 C           5.2033    1.5252   -0.6038 C.ar    1  UNL1        0.0057
     19 C           6.1689    2.4682   -0.3018 C.ar    1  UNL1        0.1289
     20 C           5.8106    3.6775    0.2878 C.ar    1  UNL1       -0.0176
     21 C           4.5041    3.9503    0.5764 C.ar    1  UNL1       -0.0308
     22 C           3.5129    3.0109    0.2794 C.ar    1  UNL1        0.0903
     23 N           2.1640    2.9910    0.4416 N.ar    1  UNL1       -0.2200
     24 O           7.4744    2.2134   -0.5827 O.3     1  UNL1       -0.4342
     25 C           8.4209    3.2297   -0.2459 C.3     1  UNL1        0.3893
     26 F           8.1098    4.4046   -0.9386 F       1  UNL1       -0.1663
     27 F           8.3732    3.4735    1.1308 F       1  UNL1       -0.1663
     28 H          -7.3805    3.5291   -0.6989 H       1  UNL1        0.0660
     29 H          -6.9325    2.5907   -2.1435 H       1  UNL1        0.0660
     30 H          -6.8935    1.8247   -0.5372 H       1  UNL1        0.0660
     31 H          -5.7927    0.7955   -2.0409 H       1  UNL1        0.0670
     32 H          -4.0183   -0.7258   -2.8083 H       1  UNL1        0.0831
     33 H          -1.7452    4.6583   -2.3251 H       1  UNL1        0.0660
     34 H          -3.4497    5.1041   -2.0719 H       1  UNL1        0.0660
     35 H          -2.1879    5.7713   -1.0085 H       1  UNL1        0.0660
     36 H          -0.5042    3.1012   -1.6402 H       1  UNL1        0.0471
     37 H          -0.0985    1.5403   -2.3933 H       1  UNL1        0.0471
     38 H           5.4841    0.5879   -1.0608 H       1  UNL1        0.0675
     39 H           6.5730    4.4067    0.5189 H       1  UNL1        0.0655
     40 H           4.2369    4.8916    1.0335 H       1  UNL1        0.0641
     41 H           9.4223    2.8994   -0.5220 H       1  UNL1        0.1520
@<TRIPOS>BOND
     1     1     2    1
     2     1    28    1
     3     1    29    1
     4     1    30    1
     5     2     3    1
     6     3     8   ar
     7     3     4   ar
     8     4     5   ar
     9     4    31    1
    10     5     6   ar
    11     5    32    1
    12     6     7   ar
    13     7     8   ar
    14     7    11    1
    15     8     9    1
    16     9    10    1
    17    10    33    1
    18    10    34    1
    19    10    35    1
    20    11    12    1
    21    11    36    1
    22    11    37    1
    23    12    13    2
    24    12    14    1
    25    14    23   ar
    26    14    15   ar
    27    15    16    1
    28    15    17   ar
    29    17    22   ar
    30    17    18   ar
    31    18    19   ar
    32    18    38    1
    33    19    20   ar
    34    19    24    1
    35    20    21   ar
    36    20    39    1
    37    21    22   ar
    38    21    40    1
    39    22    23   ar
    40    24    25    1
    41    25    26    1
    42    25    27    1
    43    25    41    1
