@<TRIPOS>MOLECULE
ZINC03800980
 69 72 0 0 0
SMALL
GASTEIGER

@<TRIPOS>ATOM
      1 C          -6.0009    2.0495    8.0635 C.3     1  UNL1       -0.0254
      2 C          -5.0729    1.8827    6.8878 C.2     1  UNL1        0.0307
      3 C          -5.1666    2.7239    5.8436 C.3     1  UNL1        0.1052
      4 C          -4.2522    2.6029    4.6558 C.3     1  UNL1        0.0360
      5 H          -4.8393    2.7230    3.7453 H       1  UNL1        0.0412
      6 C          -3.5815    1.2587    4.6382 C.2     1  UNL1        0.0659
      7 C          -3.5553    0.4743    5.7294 C.2     1  UNL1        0.0487
      8 N          -4.1454    0.8770    6.8965 N.2     1  UNL1       -0.2600
      9 C          -2.8686   -0.8657    5.6663 C.3     1  UNL1       -0.0218
     10 C          -2.9639    0.8091    3.4481 C.2     1  UNL1        0.3379
     11 O          -3.6398    0.3395    2.5518 O.2     1  UNL1       -0.2452
     12 O          -1.6250    0.9011    3.3064 O.3     1  UNL1       -0.4527
     13 C          -1.0687    0.4279    2.0781 C.3     1  UNL1        0.1429
     14 H          -1.7956    0.5560    1.2761 H       1  UNL1        0.0788
     15 C          -0.7141   -1.0562    2.2157 C.3     1  UNL1       -0.0058
     16 C          -0.0636   -1.5389    0.9164 C.3     1  UNL1       -0.0090
     17 C           1.1738   -0.6876    0.6233 C.3     1  UNL1       -0.0313
     18 C           0.1979    1.2222    1.7513 C.3     1  UNL1        0.0064
     19 C           1.9204    1.5509    0.0825 C.3     1  UNL1       -0.0058
     20 C           2.3326    1.1700   -1.3161 C.ar    1  UNL1       -0.0029
     21 C           3.2818    0.1844   -1.5127 C.ar    1  UNL1       -0.0535
     22 C           3.6561   -0.1687   -2.7957 C.ar    1  UNL1       -0.0613
     23 C           3.0895    0.4717   -3.8819 C.ar    1  UNL1       -0.0617
     24 C           2.1441    1.4608   -3.6853 C.ar    1  UNL1       -0.0613
     25 C           1.7657    1.8100   -2.4024 C.ar    1  UNL1       -0.0535
     26 C          -3.2009    3.6812    4.7142 C.ar    1  UNL1       -0.0321
     27 C          -2.3190    3.7299    5.7777 C.ar    1  UNL1       -0.0575
     28 C          -1.3550    4.7190    5.8312 C.ar    1  UNL1       -0.0551
     29 C          -1.2723    5.6591    4.8210 C.ar    1  UNL1        0.0156
     30 C          -2.1532    5.6096    3.7570 C.ar    1  UNL1        0.2734
     31 C          -3.1150    4.6180    3.7016 C.ar    1  UNL1        0.0194
     32 N          -2.0644    6.6160    2.6753 N.pl3   1  UNL1        0.0796
     33 O          -1.2151    7.4878    2.7226 O.2     1  UNL1        0.0414
     34 O          -2.8407    6.5723    1.7376 O.co2   1  UNL1       -0.5760
     35 C          -6.1426    3.7471    5.8649 C.2     1  UNL1        0.3164
     36 O          -7.1938    3.5976    5.2706 O.2     1  UNL1       -0.2501
     37 O          -5.9081    4.8892    6.5443 O.3     1  UNL1       -0.4675
     38 C          -6.9377    5.8799    6.5231 C.3     1  UNL1        0.0817
     39 H          -6.8687    1.4022    7.9360 H       1  UNL1        0.0290
     40 H          -5.4777    1.7790    8.9807 H       1  UNL1        0.0290
     41 H          -6.3277    3.0875    8.1242 H       1  UNL1        0.0290
     42 H          -5.9851    2.1698    5.6920 H       1  UNL1        0.0484
     43 H          -1.8017   -0.7362    5.8482 H       1  UNL1        0.0293
     44 H          -3.2892   -1.5255    6.4251 H       1  UNL1        0.0293
     45 H          -3.0183   -1.3045    4.6798 H       1  UNL1        0.0293
     46 H          -1.6201   -1.6320    2.4053 H       1  UNL1        0.0305
     47 H          -0.0173   -1.1888    3.0432 H       1  UNL1        0.0305
     48 H          -0.7744   -1.4423    0.0957 H       1  UNL1        0.0318
     49 H           0.2300   -2.5832    1.0224 H       1  UNL1        0.0318
     50 H           1.8901   -0.7955    1.4378 H       1  UNL1        0.0814
     51 H           1.6309   -1.0199   -0.3087 H       1  UNL1        0.0814
     52 H           0.9188    1.1054    2.5606 H       1  UNL1        0.0851
     53 H          -0.0539    2.2767    1.6388 H       1  UNL1        0.0851
     54 H           1.6318    2.6018    0.1026 H       1  UNL1        0.0867
     55 H           2.7559    1.3904    0.7639 H       1  UNL1        0.0867
     56 H           3.7281   -0.3126   -0.6640 H       1  UNL1        0.0622
     57 H           4.3945   -0.9418   -2.9494 H       1  UNL1        0.0618
     58 H           3.3851    0.1988   -4.8842 H       1  UNL1        0.0618
     59 H           1.7014    1.9612   -4.5338 H       1  UNL1        0.0618
     60 H           1.0274    2.5830   -2.2487 H       1  UNL1        0.0622
     61 H          -2.3835    2.9955    6.5669 H       1  UNL1        0.0621
     62 H          -0.6665    4.7574    6.6624 H       1  UNL1        0.0620
     63 H          -0.5193    6.4321    4.8630 H       1  UNL1        0.0685
     64 H          -3.8012    4.5772    2.8685 H       1  UNL1        0.0688
     65 H          -7.8496    5.4655    6.9528 H       1  UNL1        0.0661
     66 H          -6.6218    6.7450    7.1061 H       1  UNL1        0.0661
     67 H          -7.1272    6.1850    5.4938 H       1  UNL1        0.0661
     68 N           0.7613    0.7246    0.4782 N.4     1  UNL1        0.2411
     69 H           0.0419    0.7881   -0.2516 H       1  UNL1        0.2038
@<TRIPOS>UNITY_ATOM_ATTR
32 1
charge 1
34 1
charge -1
68 1
charge 1
@<TRIPOS>BOND
     1     1     2    1
     2     1    39    1
     3     1    40    1
     4     1    41    1
     5     2     8    2
     6     2     3    1
     7     3     4    1
     8     3    35    1
     9     3    42    1
    10     4     5    1
    11     4     6    1
    12     4    26    1
    13     6    10    1
    14     6     7    2
    15     7     9    1
    16     7     8    1
    17     9    43    1
    18     9    44    1
    19     9    45    1
    20    10    11    2
    21    10    12    1
    22    12    13    1
    23    13    14    1
    24    13    18    1
    25    13    15    1
    26    15    16    1
    27    15    46    1
    28    15    47    1
    29    16    17    1
    30    16    48    1
    31    16    49    1
    32    17    50    1
    33    17    51    1
    34    17    68    1
    35    18    52    1
    36    18    53    1
    37    18    68    1
    38    19    20    1
    39    19    54    1
    40    19    55    1
    41    19    68    1
    42    20    25   ar
    43    20    21   ar
    44    21    22   ar
    45    21    56    1
    46    22    23   ar
    47    22    57    1
    48    23    24   ar
    49    23    58    1
    50    24    25   ar
    51    24    59    1
    52    25    60    1
    53    26    31   ar
    54    26    27   ar
    55    27    28   ar
    56    27    61    1
    57    28    29   ar
    58    28    62    1
    59    29    30   ar
    60    29    63    1
    61    30    31   ar
    62    30    32    1
    63    31    64    1
    64    32    33    2
    65    32    34    1
    66    35    36    2
    67    35    37    1
    68    37    38    1
    69    38    65    1
    70    38    66    1
    71    38    67    1
    72    68    69    1
