@<TRIPOS>MOLECULE
ZINC03830510
 41 43 0 0 0
SMALL
GASTEIGER

@<TRIPOS>ATOM
      1 C          -1.4313   -4.7983    0.0413 C.3     1  UNL1        0.0332
      2 C          -1.7545   -3.3268    0.0038 C.2     1  UNL1        0.3043
      3 O          -2.8983   -2.9629   -0.1351 O.2     1  UNL1       -0.2512
      4 O          -0.7718   -2.4205    0.1245 O.3     1  UNL1       -0.4603
      5 C          -1.1394   -1.0247   -0.0332 C.3     1  UNL1        0.1164
      6 C           0.1012   -0.1703    0.0124 C.2     1  UNL1        0.0004
      7 CA         -0.0978    1.1379   -0.0404 C.2     1  UNL1        0.0631
      8 N           0.9924    2.0216   -0.0587 N.am    1  UNL1       -0.2533
      9 C           2.3901    1.7159    0.3899 C.3     1  UNL1        0.1041
     10 H           2.5851    1.7609    1.4614 H       1  UNL1        0.0644
     11 CA          2.7837    2.9565   -0.4048 C.3     1  UNL1        0.1283
     12 HA          3.3346    3.6940    0.1789 H       1  UNL1        0.0622
     13 C           1.2965    3.2484   -0.5138 C.2     1  UNL1        0.2438
     14 O           0.6441    4.2067   -0.8704 O.2     1  UNL1       -0.2731
     15 N           3.4201    2.6552   -1.6895 N.am    1  UNL1       -0.3015
     16 C           4.2514    3.5519   -2.2565 C.2     1  UNL1        0.2185
     17 O           4.4725    4.6082   -1.7031 O.2     1  UNL1       -0.2754
     18 C           4.9060    3.2420   -3.5780 C.3     1  UNL1        0.0553
     19 C           5.7798    4.3988   -3.9893 C.ar    1  UNL1       -0.0015
     20 C           7.0892    4.6187   -3.7167 C.ar    1  UNL1       -0.0511
     21 C           7.6925    5.7628   -4.2043 C.ar    1  UNL1       -0.0545
     22 C           6.9569    6.6310   -4.9408 C.ar    1  UNL1       -0.0241
     23 S           5.3609    5.8315   -4.9687 S.2     1  UNL1       -0.1011
     24 S           2.8089    0.1215   -0.3919 S.3     1  UNL1       -0.1310
     25 C           1.3960   -0.9092    0.1107 C.3     1  UNL1        0.0219
     26 C          -1.4723    1.6686   -0.0862 C.2     1  UNL1        0.0860
     27 O          -1.6634    2.8667   -0.0196 O.co2   1  UNL1       -0.5433
     28 H          -0.3720   -4.9321    0.2604 H       1  UNL1        0.0342
     29 H          -2.0264   -5.2813    0.8163 H       1  UNL1        0.0342
     30 H          -1.6617   -5.2457   -0.9255 H       1  UNL1        0.0342
     31 H          -1.8116   -0.7325    0.7736 H       1  UNL1        0.0746
     32 H          -1.6404   -0.8869   -0.9914 H       1  UNL1        0.0746
     33 H           3.2432    1.8104   -2.1321 H       1  UNL1        0.1495
     34 H           5.5152    2.3435   -3.4798 H       1  UNL1        0.0412
     35 H           4.1383    3.0795   -4.3345 H       1  UNL1        0.0412
     36 H           7.6528    3.9105   -3.1275 H       1  UNL1        0.0626
     37 H           8.7346    5.9617   -4.0019 H       1  UNL1        0.0623
     38 H           7.2590    7.5626   -5.3960 H       1  UNL1        0.0693
     39 H           1.5421   -1.2326    1.1413 H       1  UNL1        0.0424
     40 H           1.3522   -1.7883   -0.5321 H       1  UNL1        0.0424
     41 OXT        -2.5169    0.8250   -0.2021 O.co2   1  UNL1       -0.5433
@<TRIPOS>UNITY_ATOM_ATTR
41 1
charge -1
@<TRIPOS>BOND
     1     1     2    1
     2     1    28    1
     3     1    29    1
     4     1    30    1
     5     2     3    2
     6     2     4    1
     7     4     5    1
     8     5     6    1
     9     5    31    1
    10     5    32    1
    11     6    25    1
    12     6     7    2
    13     7     8    1
    14     7    26    1
    15     8    13   am
    16     8     9    1
    17     9    10    1
    18     9    11    1
    19     9    24    1
    20    11    12    1
    21    11    13    1
    22    11    15    1
    23    13    14    2
    24    15    16   am
    25    15    33    1
    26    16    17    2
    27    16    18    1
    28    18    19    1
    29    18    34    1
    30    18    35    1
    31    19    23   ar
    32    19    20   ar
    33    20    21   ar
    34    20    36    1
    35    21    22   ar
    36    21    37    1
    37    22    23   ar
    38    22    38    1
    39    24    25    1
    40    25    39    1
    41    25    40    1
    42    26    27   ar
    43    26    41   ar
