@<TRIPOS>MOLECULE
ZINC02015503
 54 58 0 0 0
SMALL
GASTEIGER

@<TRIPOS>ATOM
      1 C          -0.7554    5.5379   -0.9637 C.3     1  UNL1       -0.0424
      2 C          -1.8120    6.2984   -3.0078 C.3     1  UNL1       -0.0273
      3 C          -3.1143    6.1679   -3.7982 C.3     1  UNL1        0.0134
      4 C          -4.2589    6.7434   -3.0036 C.ar    1  UNL1       -0.0265
      5 C          -5.4394    7.0405   -3.6681 C.ar    1  UNL1       -0.0121
      6 C          -6.5198    7.5671   -2.9809 C.ar    1  UNL1        0.1702
      7 C          -6.4190    7.8002   -1.6131 C.ar    1  UNL1        0.2080
      8 C          -5.2363    7.5034   -0.9515 C.ar    1  UNL1        0.1742
      9 C          -4.1542    6.9744   -1.6486 C.ar    1  UNL1        0.0528
     10 C          -2.8911    6.6712   -0.8856 C.3     1  UNL1        0.0507
     11 H          -2.3544    7.6007   -0.6955 H       1  UNL1        0.0946
     12 C          -3.2523    6.0148    0.4484 C.3     1  UNL1        0.1757
     13 H          -3.8868    6.6803    1.0337 H       1  UNL1        0.0848
     14 C          -1.9985    5.6844    1.2190 C.ar    1  UNL1        0.0163
     15 C          -0.9707    6.4468    1.7182 C.ar    1  UNL1       -0.0504
     16 C           0.0739    5.8452    2.4033 C.ar    1  UNL1       -0.0159
     17 C           0.0863    4.4735    2.5925 C.ar    1  UNL1        0.1623
     18 C          -0.9460    3.6888    2.0873 C.ar    1  UNL1        0.1758
     19 C          -2.0018    4.2959    1.3960 C.ar    1  UNL1        0.1110
     20 C          -3.2146    3.7578    0.7610 C.2     1  UNL1        0.3440
     21 O          -3.5216    2.5824    0.7346 O.2     1  UNL1       -0.2448
     22 O          -3.9345    4.7523    0.2149 O.3     1  UNL1       -0.4468
     23 O          -0.9325    2.3437    2.2684 O.3     1  UNL1       -0.4906
     24 C          -0.2905    1.5599    1.2607 C.3     1  UNL1        0.0790
     25 O           1.1117    3.8914    3.2701 O.3     1  UNL1       -0.4914
     26 C           2.1381    4.7558    3.7615 C.3     1  UNL1        0.0790
     27 O          -5.1341    7.7295    0.3857 O.3     1  UNL1       -0.4908
     28 C          -4.7832    9.0529    0.7949 C.3     1  UNL1        0.0790
     29 O          -7.6038    8.3151   -1.1690 O.3     1  UNL1       -0.4489
     30 C          -8.5636    8.0133   -2.1990 C.3     1  UNL1        0.2334
     31 O          -7.7669    7.9361   -3.3959 O.3     1  UNL1       -0.4525
     32 H          -0.8939    4.7942   -0.1790 H       1  UNL1        0.0778
     33 H          -0.0149    5.1787   -1.6782 H       1  UNL1        0.0778
     34 H          -0.4103    6.4726   -0.5216 H       1  UNL1        0.0778
     35 H          -1.5250    7.3481   -2.9456 H       1  UNL1        0.0818
     36 H          -1.0249    5.7292   -3.5023 H       1  UNL1        0.0818
     37 H          -3.0210    6.7072   -4.7408 H       1  UNL1        0.0365
     38 H          -3.3092    5.1153   -4.0031 H       1  UNL1        0.0365
     39 H          -5.5167    6.8594   -4.7300 H       1  UNL1        0.0658
     40 H          -0.9764    7.5175    1.5770 H       1  UNL1        0.0623
     41 H           0.8793    6.4493    2.7940 H       1  UNL1        0.0655
     42 H          -0.3511    0.5048    1.5276 H       1  UNL1        0.0660
     43 H           0.7557    1.8554    1.1821 H       1  UNL1        0.0660
     44 H          -0.7866    1.7216    0.3036 H       1  UNL1        0.0660
     45 H           2.8926    4.1651    4.2811 H       1  UNL1        0.0660
     46 H           2.6004    5.2822    2.9265 H       1  UNL1        0.0660
     47 H           1.7042    5.4792    4.4518 H       1  UNL1        0.0660
     48 H          -4.8210    9.1191    1.8822 H       1  UNL1        0.0660
     49 H          -3.7747    9.2839    0.4517 H       1  UNL1        0.0660
     50 H          -5.4861    9.7653    0.3628 H       1  UNL1        0.0660
     51 H          -9.0508    7.0586   -2.0008 H       1  UNL1        0.1166
     52 H          -9.3030    8.8101   -2.2790 H       1  UNL1        0.1166
     53 N          -2.0461    5.7459   -1.6585 N.4     1  UNL1        0.2417
     54 H          -2.5284    4.8435   -1.7446 H       1  UNL1        0.2038
@<TRIPOS>UNITY_ATOM_ATTR
53 1
charge 1
@<TRIPOS>BOND
     1     1    32    1
     2     1    33    1
     3     1    34    1
     4     1    53    1
     5     2     3    1
     6     2    35    1
     7     2    36    1
     8     2    53    1
     9     3     4    1
    10     3    37    1
    11     3    38    1
    12     4     9   ar
    13     4     5   ar
    14     5     6   ar
    15     5    39    1
    16     6    31    1
    17     6     7   ar
    18     7     8   ar
    19     7    29    1
    20     8     9   ar
    21     8    27    1
    22     9    10    1
    23    10    11    1
    24    10    12    1
    25    10    53    1
    26    12    13    1
    27    12    22    1
    28    12    14    1
    29    14    19   ar
    30    14    15   ar
    31    15    16   ar
    32    15    40    1
    33    16    17   ar
    34    16    41    1
    35    17    18   ar
    36    17    25    1
    37    18    19   ar
    38    18    23    1
    39    19    20    1
    40    20    21    2
    41    20    22    1
    42    23    24    1
    43    24    42    1
    44    24    43    1
    45    24    44    1
    46    25    26    1
    47    26    45    1
    48    26    46    1
    49    26    47    1
    50    27    28    1
    51    28    48    1
    52    28    49    1
    53    28    50    1
    54    29    30    1
    55    30    31    1
    56    30    51    1
    57    30    52    1
    58    53    54    1
