@<TRIPOS>MOLECULE
ZINC00020228
 35 35 0 0 0
SMALL
GASTEIGER

@<TRIPOS>ATOM
      1 C           3.5678    2.0841   -1.4137 C.3     1  UNL1       -0.0142
      2 C           3.6759    1.8111    0.0879 C.3     1  UNL1        0.0390
      3 H           3.7967    2.6755    0.5760 H       1  UNL1        0.0933
      4 C           2.4190    1.1311    0.5665 C.2     1  UNL1        0.2100
      5 O           2.4293   -0.0552    0.8171 O.2     1  UNL1       -0.2860
      6 C           1.1792    1.9070    0.7299 C.ar    1  UNL1        0.0245
      7 C           1.1635    3.2757    0.4422 C.ar    1  UNL1       -0.0510
      8 C          -0.0015    3.9964    0.5980 C.ar    1  UNL1       -0.0597
      9 C          -1.1543    3.3693    1.0377 C.ar    1  UNL1       -0.0433
     10 C          -1.1490    2.0133    1.3193 C.ar    1  UNL1        0.0416
     11 C           0.0111    1.2796    1.1737 C.ar    1  UNL1       -0.0327
     12 CL         -2.6029    1.2358    1.8627 Cl      1  UNL1       -0.0835
     13 C           5.9200    1.6896    0.9888 C.3     1  UNL1       -0.0197
     14 C           5.4454    2.2159    2.3447 C.3     1  UNL1       -0.0193
     15 C           7.1225    0.7658    1.1928 C.3     1  UNL1       -0.0193
     16 C           6.3258    2.8660    0.0987 C.3     1  UNL1       -0.0193
     17 H           2.6596    2.6520   -1.6153 H       1  UNL1        0.0289
     18 H           4.4350    2.6570   -1.7421 H       1  UNL1        0.0289
     19 H           3.5319    1.1378   -1.9534 H       1  UNL1        0.0289
     20 H           2.0621    3.7670    0.0993 H       1  UNL1        0.0625
     21 H          -0.0147    5.0532    0.3758 H       1  UNL1        0.0618
     22 H          -2.0638    3.9393    1.1573 H       1  UNL1        0.0632
     23 H           0.0155    0.2231    1.3978 H       1  UNL1        0.0639
     24 H           5.0570    1.3892    2.9396 H       1  UNL1        0.0287
     25 H           6.2822    2.6784    2.8681 H       1  UNL1        0.0287
     26 H           4.6588    2.9549    2.1925 H       1  UNL1        0.0287
     27 H           7.4607    0.3909    0.2268 H       1  UNL1        0.0287
     28 H           7.9302    1.3208    1.6700 H       1  UNL1        0.0287
     29 H           6.8334   -0.0723    1.8269 H       1  UNL1        0.0287
     30 H           5.4918    3.5628    0.0148 H       1  UNL1        0.0287
     31 H           7.1825    3.3762    0.5391 H       1  UNL1        0.0287
     32 H           6.5923    2.4973   -0.8918 H       1  UNL1        0.0287
     33 N           4.8319    0.9312    0.3431 N.4     1  UNL1        0.2383
     34 H           5.1688    0.5476   -0.5477 H       1  UNL1        0.2026
     35 H           4.5429    0.1624    0.9593 H       1  UNL1        0.2026
@<TRIPOS>UNITY_ATOM_ATTR
33 1
charge 1
@<TRIPOS>BOND
     1     1     2    1
     2     1    17    1
     3     1    18    1
     4     1    19    1
     5     2     3    1
     6     2     4    1
     7     2    33    1
     8     4     5    2
     9     4     6    1
    10     6    11   ar
    11     6     7   ar
    12     7     8   ar
    13     7    20    1
    14     8     9   ar
    15     8    21    1
    16     9    10   ar
    17     9    22    1
    18    10    11   ar
    19    10    12    1
    20    11    23    1
    21    13    14    1
    22    13    15    1
    23    13    16    1
    24    13    33    1
    25    14    24    1
    26    14    25    1
    27    14    26    1
    28    15    27    1
    29    15    28    1
    30    15    29    1
    31    16    30    1
    32    16    31    1
    33    16    32    1
    34    33    34    1
    35    33    35    1
