@<TRIPOS>MOLECULE
ZINC03831097
 62 65 0 0 0
SMALL
GASTEIGER

@<TRIPOS>ATOM
      1 C          -0.6441    1.5921    0.6783 C.3     1  UNL1       -0.0587
      2 C          -0.5414    0.0776    0.4980 C.3     1  UNL1       -0.0212
      3 H          -1.5551   -0.3329    0.4468 H       1  UNL1        0.0343
      4 C           0.1876   -0.2231   -0.8127 C.3     1  UNL1       -0.0432
      5 C           0.3821   -1.7312   -1.0209 C.3     1  UNL1       -0.0308
      6 H          -0.5808   -2.2108   -1.1541 H       1  UNL1        0.0308
      7 C           1.2058   -1.8806   -2.3079 C.3     1  UNL1       -0.0292
      8 H           2.0495   -1.1722   -2.3033 H       1  UNL1        0.0310
      9 C           0.2388   -1.5892   -3.4895 C.3     1  UNL1       -0.0463
     10 C          -0.4449   -2.9508   -3.7385 C.3     1  UNL1       -0.0161
     11 C           0.6427   -4.0059   -3.4346 C.3     1  UNL1        0.1326
     12 C           1.6905   -3.3089   -2.5691 C.3     1  UNL1        0.0092
     13 C           2.1665   -4.0503   -1.3535 C.3     1  UNL1       -0.0178
     14 C           1.3859   -3.8196   -0.0694 C.3     1  UNL1        0.0600
     15 H           2.0134   -4.1893    0.7669 H       1  UNL1        0.0596
     16 C           1.1352   -2.3352    0.1551 C.3     1  UNL1        0.0007
     17 H           2.1247   -1.8315    0.2030 H       1  UNL1        0.0340
     18 C           0.4292   -2.0720    1.4813 C.3     1  UNL1        0.0133
     19 C           0.2266   -0.5797    1.6264 C.2     1  UNL1       -0.0531
     20 C           0.6797    0.1015    2.6604 C.2     1  UNL1       -0.0146
     21 C           1.4278   -0.5688    3.7421 C.2     1  UNL1        0.1787
     22 O           1.8503    0.0711    4.6866 O.2     1  UNL1       -0.2879
     23 C           1.6491   -2.0196    3.6509 C.2     1  UNL1       -0.0180
     24 C           1.1829   -2.6883    2.6103 C.2     1  UNL1       -0.0701
     25 C          -0.9699   -2.6878    1.4834 C.3     1  UNL1       -0.0520
     26 O           0.1904   -4.5912   -0.0707 O.3     1  UNL1       -0.3914
     27 C           2.9470   -3.1643   -3.4782 C.3     1  UNL1       -0.0562
     28 C           0.0214   -5.2118   -2.7941 C.2     1  UNL1        0.2022
     29 O          -1.0054   -5.1015   -2.1681 O.2     1  UNL1       -0.2907
     30 C           0.6785   -6.5610   -2.9319 C.3     1  UNL1        0.1530
     31 O          -0.1097   -7.5574   -2.2290 O.3     1  UNL1       -0.4570
     32 C           0.3422   -8.8211   -2.2548 C.2     1  UNL1        0.3043
     33 O           1.3627   -9.0858   -2.8451 O.2     1  UNL1       -0.2512
     34 C          -0.4232   -9.9096   -1.5474 C.3     1  UNL1        0.0332
     35 O           1.2522   -4.4040   -4.6775 O.3     1  UNL1       -0.3804
     36 H           0.3565    2.0235    0.7043 H       1  UNL1        0.0235
     37 H          -1.2027    2.0200   -0.1541 H       1  UNL1        0.0235
     38 H          -1.1593    1.8126    1.6132 H       1  UNL1        0.0235
     39 H          -0.3935    0.1809   -1.6440 H       1  UNL1        0.0274
     40 H           1.1659    0.2622   -0.7996 H       1  UNL1        0.0274
     41 H          -0.5008   -0.8377   -3.2121 H       1  UNL1        0.0269
     42 H           0.7892   -1.2673   -4.3735 H       1  UNL1        0.0269
     43 H          -1.2918   -3.0789   -3.0687 H       1  UNL1        0.0297
     44 H          -0.7614   -3.0293   -4.7772 H       1  UNL1        0.0297
     45 H           3.2096   -3.7230   -1.1606 H       1  UNL1        0.0297
     46 H           2.2419   -5.1204   -1.5534 H       1  UNL1        0.0297
     47 H           0.5243    1.1653    2.7716 H       1  UNL1        0.0656
     48 H           2.1897   -2.5367    4.4300 H       1  UNL1        0.0653
     49 H           1.3552   -3.7551    2.5797 H       1  UNL1        0.0582
     50 H          -1.5454   -2.2851    0.6499 H       1  UNL1        0.0241
     51 H          -0.8907   -3.7701    1.3810 H       1  UNL1        0.0241
     52 H          -1.4713   -2.4473    2.4209 H       1  UNL1        0.0241
     53 H           0.3383   -5.5457   -0.1183 H       1  UNL1        0.2098
     54 H           3.3326   -4.1535   -3.7251 H       1  UNL1        0.0236
     55 H           2.6740   -2.6416   -4.3949 H       1  UNL1        0.0236
     56 H           3.7136   -2.5967   -2.9508 H       1  UNL1        0.0236
     57 H           0.7383   -6.8053   -3.8997 H       1  UNL1        0.0779
     58 H           1.6804   -6.5225   -2.5043 H       1  UNL1        0.0779
     59 H          -1.4265   -9.9801   -1.9675 H       1  UNL1        0.0342
     60 H           0.0931  -10.8606   -1.6781 H       1  UNL1        0.0342
     61 H          -0.4898   -9.6753   -0.4849 H       1  UNL1        0.0342
     62 H           0.6495   -4.8551   -5.2844 H       1  UNL1        0.2108
@<TRIPOS>BOND
     1     1     2    1
     2     1    36    1
     3     1    37    1
     4     1    38    1
     5     2     3    1
     6     2    19    1
     7     2     4    1
     8     4     5    1
     9     4    39    1
    10     4    40    1
    11     5     6    1
    12     5    16    1
    13     5     7    1
    14     7     8    1
    15     7    12    1
    16     7     9    1
    17     9    10    1
    18     9    41    1
    19     9    42    1
    20    10    11    1
    21    10    43    1
    22    10    44    1
    23    11    12    1
    24    11    28    1
    25    11    35    1
    26    12    13    1
    27    12    27    1
    28    13    14    1
    29    13    45    1
    30    13    46    1
    31    14    15    1
    32    14    16    1
    33    14    26    1
    34    16    17    1
    35    16    18    1
    36    18    24    1
    37    18    19    1
    38    18    25    1
    39    19    20    2
    40    20    21    1
    41    20    47    1
    42    21    22    2
    43    21    23    1
    44    23    24    2
    45    23    48    1
    46    24    49    1
    47    25    50    1
    48    25    51    1
    49    25    52    1
    50    26    53    1
    51    27    54    1
    52    27    55    1
    53    27    56    1
    54    28    29    2
    55    28    30    1
    56    30    31    1
    57    30    57    1
    58    30    58    1
    59    31    32    1
    60    32    33    2
    61    32    34    1
    62    34    59    1
    63    34    60    1
    64    34    61    1
    65    35    62    1
