@<TRIPOS>MOLECULE
ZINC03830215
 44 46 0 0 0
SMALL
GASTEIGER

@<TRIPOS>ATOM
      1 C           3.8727   -2.7766    3.0435 C.3     1  UNL1       -0.0486
      2 C           4.6836   -1.4910    2.8682 C.3     1  UNL1        0.0366
      3 CA          5.0630   -1.2535    1.3804 C.3     1  UNL1        0.0807
      4 HA          4.2628   -1.6324    0.7447 H       1  UNL1        0.0576
      5 N           5.2695    0.1689    1.0922 N.am    1  UNL1       -0.2761
      6 C           4.5336    1.1164    1.9637 C.3     1  UNL1        0.1003
      7 H           5.1179    1.9143    2.4221 H       1  UNL1        0.0640
      8 S           3.6393    0.0123    3.1295 S.3     1  UNL1       -0.1275
      9 CA          3.7243    1.5049    0.7249 C.3     1  UNL1        0.1278
     10 HA          3.7845    2.5644    0.4758 H       1  UNL1        0.0622
     11 C           4.6880    0.6386   -0.0589 C.2     1  UNL1        0.2401
     12 O           4.8722    0.4391   -1.2409 O.2     1  UNL1       -0.2734
     13 N           2.3499    0.9978    0.7353 N.am    1  UNL1       -0.2968
     14 C           1.4011    1.6074   -0.0027 C.2     1  UNL1        0.2665
     15 O           1.6851    2.5758   -0.6754 O.2     1  UNL1       -0.2692
     16 CA         -0.0127    1.0858    0.0080 C.3     1  UNL1        0.0789
     17 HA          0.0021   -0.0041    0.0020 H       1  UNL1        0.1002
     18 C          -0.7181    1.5718    1.2479 C.ar    1  UNL1        0.0093
     19 C          -1.2228    2.8582    1.2954 C.ar    1  UNL1       -0.0493
     20 C          -1.8748    3.3042    2.4287 C.ar    1  UNL1       -0.0197
     21 C          -2.0125    2.4641    3.5241 C.ar    1  UNL1        0.1169
     22 C          -1.5002    1.1758    3.4761 C.ar    1  UNL1       -0.0197
     23 C          -0.8545    0.7325    2.3381 C.ar    1  UNL1       -0.0493
     24 O          -2.6479    2.9027    4.6426 O.3     1  UNL1       -0.5068
     25 C           6.3309   -2.0067    1.0703 C.2     1  UNL1        0.0635
     26 O           7.3797   -1.4134    0.9816 O.co2   1  UNL1       -0.5478
     27 C           5.9184   -1.4837    3.7716 C.3     1  UNL1       -0.0486
     28 H           4.4607   -3.6270    2.6981 H       1  UNL1        0.0244
     29 H           3.6256   -2.9095    4.0968 H       1  UNL1        0.0244
     30 H           2.9542   -2.7092    2.4605 H       1  UNL1        0.0244
     31 H           2.1228    0.2233    1.2733 H       1  UNL1        0.1497
     32 H          -1.1108    3.5135    0.4442 H       1  UNL1        0.0623
     33 H          -2.2724    4.3077    2.4638 H       1  UNL1        0.0654
     34 H          -1.6065    0.5198    4.3274 H       1  UNL1        0.0654
     35 H          -0.4555   -0.2704    2.3002 H       1  UNL1        0.0623
     36 H          -2.0631    3.3233    5.2877 H       1  UNL1        0.2921
     37 H1         -1.6533    1.1846   -1.2317 H       1  UNL1        0.2005
     38 H2         -0.7506    2.5809   -1.1997 H       1  UNL1        0.2005
     39 H           6.4197   -0.5190    3.6940 H       1  UNL1        0.0244
     40 H           5.6139   -1.6529    4.8044 H       1  UNL1        0.0244
     41 H           6.6013   -2.2741    3.4600 H       1  UNL1        0.0244
     42 N          -0.7082    1.5631   -1.2002 N.4     1  UNL1        0.2307
     43 H3         -0.1938    1.2497   -2.0317 H       1  UNL1        0.2005
     44 OXT         6.2951   -3.3367    0.8928 O.co2   1  UNL1       -0.5478
@<TRIPOS>UNITY_ATOM_ATTR
42 1
charge 1
44 1
charge -1
@<TRIPOS>BOND
     1     1     2    1
     2     1    28    1
     3     1    29    1
     4     1    30    1
     5     2     8    1
     6     2     3    1
     7     2    27    1
     8     3     4    1
     9     3     5    1
    10     3    25    1
    11     5    11   am
    12     5     6    1
    13     6     7    1
    14     6     8    1
    15     6     9    1
    16     9    10    1
    17     9    11    1
    18     9    13    1
    19    11    12    2
    20    13    14   am
    21    13    31    1
    22    14    15    2
    23    14    16    1
    24    16    17    1
    25    16    18    1
    26    16    42    1
    27    18    23   ar
    28    18    19   ar
    29    19    20   ar
    30    19    32    1
    31    20    21   ar
    32    20    33    1
    33    21    22   ar
    34    21    24    1
    35    22    23   ar
    36    22    34    1
    37    23    35    1
    38    24    36    1
    39    25    26   ar
    40    25    44   ar
    41    27    39    1
    42    27    40    1
    43    27    41    1
    44    37    42    1
    45    38    42    1
    46    42    43    1
