@<TRIPOS>MOLECULE
ZINC03830663
 81 86 0 0 0
SMALL
GASTEIGER

@<TRIPOS>ATOM
      1 C           8.9263   -1.5925   -3.3749 C.3     1  UNL1        0.0790
      2 O           8.2903   -1.8657   -4.6251 O.3     1  UNL1       -0.4913
      3 C           6.9443   -1.6812   -4.6865 C.ar    1  UNL1        0.1660
      4 C           6.2552   -1.2479   -3.5695 C.ar    1  UNL1       -0.0021
      5 C           4.8720   -1.0581   -3.6334 C.ar    1  UNL1        0.0661
      6 C           4.1887   -1.3127   -4.8257 C.ar    1  UNL1       -0.0021
      7 C           4.8836   -1.7408   -5.9411 C.ar    1  UNL1        0.1660
      8 C           6.2617   -1.9287   -5.8747 C.ar    1  UNL1        0.2035
      9 O           6.9417   -2.3547   -6.9713 O.3     1  UNL1       -0.4885
     10 C           7.0840   -3.7667   -7.1384 C.3     1  UNL1        0.0791
     11 O           4.2200   -1.9835   -7.1032 O.3     1  UNL1       -0.4913
     12 C           2.8071   -1.7699   -7.1003 C.3     1  UNL1        0.0790
     13 C           4.1340   -0.5957   -2.4433 C.2     1  UNL1        0.3398
     14 O           4.7285   -0.3794   -1.4059 O.2     1  UNL1       -0.2449
     15 O           2.8005   -0.4131   -2.5062 O.3     1  UNL1       -0.4552
     16 C           2.1398    0.0434   -1.2965 C.3     1  UNL1        0.1306
     17 H           2.6825   -0.3247   -0.4259 H       1  UNL1        0.0760
     18 C           2.1202    1.5739   -1.2735 C.3     1  UNL1       -0.0052
     19 C           1.4193    2.0496   -0.0005 C.3     1  UNL1        0.0065
     20 H           1.9514    1.6673    0.8707 H       1  UNL1        0.0357
     21 C           1.4026    3.5786    0.0488 C.3     1  UNL1       -0.0280
     22 C           0.8156    5.4603    1.4714 C.3     1  UNL1       -0.0271
     23 C           0.4454    5.8012    2.9218 C.3     1  UNL1        0.0152
     24 C          -0.8457    5.0976    3.2562 C.ar    1  UNL1       -0.0086
     25 C          -1.7534    5.3246    4.3585 C.ar    1  UNL1        0.0035
     26 C          -1.7428    6.2241    5.4291 C.ar    1  UNL1       -0.0523
     27 C          -2.7942    6.1549    6.3092 C.ar    1  UNL1       -0.0611
     28 C          -3.8255    5.2430    6.1540 C.ar    1  UNL1       -0.0598
     29 C          -3.8621    4.3418    5.1042 C.ar    1  UNL1       -0.0378
     30 C          -2.8071    4.3878    4.1954 C.ar    1  UNL1        0.0471
     31 N          -2.5349    3.6597    3.0723 N.ar    1  UNL1       -0.3533
     32 H          -3.0901    2.9456    2.7222 H       1  UNL1        0.1658
     33 C          -1.3614    4.0891    2.5156 C.ar    1  UNL1        0.0689
     34 C          -0.6905    3.5627    1.2713 C.3     1  UNL1        0.0208
     35 H          -1.2006    3.9507    0.3897 H       1  UNL1        0.0919
     36 C          -0.7332    2.0328    1.2649 C.3     1  UNL1        0.0002
     37 C          -0.0187    1.5247    0.0104 C.3     1  UNL1       -0.0124
     38 H          -0.5431    1.8852   -0.8745 H       1  UNL1        0.0316
     39 C           0.0021   -0.0041    0.0020 C.3     1  UNL1        0.0894
     40 H          -1.0201   -0.3822    0.0186 H       1  UNL1        0.0443
     41 C           0.7071   -0.4913   -1.2665 C.3     1  UNL1        0.1083
     42 H           0.1672   -0.1317   -2.1425 H       1  UNL1        0.0641
     43 O           0.7323   -1.9201   -1.2776 O.3     1  UNL1       -0.3753
     44 C           0.7159   -2.4915   -2.5873 C.3     1  UNL1        0.0370
     45 C           0.7446   -0.5041    1.2143 C.2     1  UNL1        0.3129
     46 O           1.2100    0.2824    2.0047 O.2     1  UNL1       -0.2504
     47 O           0.8890   -1.8233    1.4160 O.3     1  UNL1       -0.4677
     48 C           1.6157   -2.2328    2.6045 C.3     1  UNL1        0.0817
     49 H           9.9965   -1.7796   -3.4631 H       1  UNL1        0.0660
     50 H           8.7609   -0.5499   -3.1034 H       1  UNL1        0.0660
     51 H           8.5066   -2.2396   -2.6047 H       1  UNL1        0.0660
     52 H           6.7851   -1.0565   -2.6481 H       1  UNL1        0.0663
     53 H           3.1192   -1.1715   -4.8765 H       1  UNL1        0.0663
     54 H           6.0977   -4.2255   -7.2088 H       1  UNL1        0.0660
     55 H           7.6452   -3.9699   -8.0505 H       1  UNL1        0.0660
     56 H           7.6176   -4.1818   -6.2834 H       1  UNL1        0.0660
     57 H           2.4029   -1.9996   -8.0861 H       1  UNL1        0.0660
     58 H           2.3432   -2.4186   -6.3572 H       1  UNL1        0.0660
     59 H           2.5975   -0.7287   -6.8552 H       1  UNL1        0.0660
     60 H           3.1427    1.9512   -1.2889 H       1  UNL1        0.0306
     61 H           1.5823    1.9442   -2.1462 H       1  UNL1        0.0306
     62 H           2.4257    3.9542    0.0585 H       1  UNL1        0.0817
     63 H           0.8804    3.9657   -0.8262 H       1  UNL1        0.0817
     64 H           1.8382    5.7810    1.2723 H       1  UNL1        0.0818
     65 H           0.1349    5.9737    0.7924 H       1  UNL1        0.0818
     66 H           0.3145    6.8784    3.0247 H       1  UNL1        0.0366
     67 H           1.2343    5.4603    3.5922 H       1  UNL1        0.0366
     68 H          -0.9435    6.9388    5.5588 H       1  UNL1        0.0624
     69 H          -2.8188    6.8338    7.1487 H       1  UNL1        0.0618
     70 H          -4.6279    5.2347    6.8769 H       1  UNL1        0.0618
     71 H          -4.6713    3.6350    4.9947 H       1  UNL1        0.0638
     72 H          -1.7699    1.6963    1.2565 H       1  UNL1        0.0327
     73 H          -0.2298    1.6496    2.1525 H       1  UNL1        0.0327
     74 H          -0.1905   -2.1818   -3.1075 H       1  UNL1        0.0524
     75 H           1.5889   -2.1500   -3.1436 H       1  UNL1        0.0524
     76 H           0.7369   -3.5785   -2.5097 H       1  UNL1        0.0524
     77 H           1.1053   -1.8552    3.4905 H       1  UNL1        0.0661
     78 H           1.6596   -3.3211    2.6466 H       1  UNL1        0.0661
     79 H           2.6277   -1.8294    2.5686 H       1  UNL1        0.0661
     80 N           0.7263    3.9904    1.2981 N.4     1  UNL1        0.2421
     81 H           1.1935    3.5363    2.0917 H       1  UNL1        0.2040
@<TRIPOS>UNITY_ATOM_ATTR
80 1
charge 1
@<TRIPOS>BOND
     1     1     2    1
     2     1    49    1
     3     1    50    1
     4     1    51    1
     5     2     3    1
     6     3     8   ar
     7     3     4   ar
     8     4     5   ar
     9     4    52    1
    10     5     6   ar
    11     5    13    1
    12     6     7   ar
    13     6    53    1
    14     7     8   ar
    15     7    11    1
    16     8     9    1
    17     9    10    1
    18    10    54    1
    19    10    55    1
    20    10    56    1
    21    11    12    1
    22    12    57    1
    23    12    58    1
    24    12    59    1
    25    13    14    2
    26    13    15    1
    27    15    16    1
    28    16    17    1
    29    16    41    1
    30    16    18    1
    31    18    19    1
    32    18    60    1
    33    18    61    1
    34    19    20    1
    35    19    37    1
    36    19    21    1
    37    21    62    1
    38    21    63    1
    39    21    80    1
    40    22    23    1
    41    22    64    1
    42    22    65    1
    43    22    80    1
    44    23    24    1
    45    23    66    1
    46    23    67    1
    47    24    33   ar
    48    24    25   ar
    49    25    30   ar
    50    25    26   ar
    51    26    27   ar
    52    26    68    1
    53    27    28   ar
    54    27    69    1
    55    28    29   ar
    56    28    70    1
    57    29    30   ar
    58    29    71    1
    59    30    31   ar
    60    31    32    1
    61    31    33   ar
    62    33    34    1
    63    34    35    1
    64    34    36    1
    65    34    80    1
    66    36    37    1
    67    36    72    1
    68    36    73    1
    69    37    38    1
    70    37    39    1
    71    39    40    1
    72    39    41    1
    73    39    45    1
    74    41    42    1
    75    41    43    1
    76    43    44    1
    77    44    74    1
    78    44    75    1
    79    44    76    1
    80    45    46    2
    81    45    47    1
    82    47    48    1
    83    48    77    1
    84    48    78    1
    85    48    79    1
    86    80    81    1
