@<TRIPOS>MOLECULE
ZINC03831557
 43 45 0 0 0
SMALL
GASTEIGER

@<TRIPOS>ATOM
      1 C           1.2160    7.2958    1.9679 C.3     1  UNL1       -0.0108
      2 C           1.5488    6.0279    2.7568 C.3     1  UNL1        0.1656
      3 O           0.9107    6.0776    4.0408 O.3     1  UNL1       -0.3410
      4 C           0.0498    4.9139    4.1333 C.3     1  UNL1        0.1140
      5 H          -0.8669    5.1324    4.6811 H       1  UNL1        0.0647
      6 C           0.8602    3.8153    4.8153 C.3     1  UNL1        0.0799
      7 O           0.4056    2.4944    4.4991 O.3     1  UNL1       -0.3418
      8 C           0.4538    2.2642    3.1023 C.3     1  UNL1        0.2280
      9 C          -0.6308    3.1750    2.4643 C.3     1  UNL1        0.1466
     10 H          -1.5852    3.0223    2.9683 H       1  UNL1        0.0679
     11 C          -0.2158    4.6021    2.6390 C.3     1  UNL1        0.1215
     12 H          -0.9705    5.2788    2.2384 H       1  UNL1        0.0652
     13 O           1.0658    4.8731    2.0435 O.3     1  UNL1       -0.3406
     14 O          -0.6846    2.6356    1.1426 O.3     1  UNL1       -0.3378
     15 C          -0.5909    1.2059    1.3629 C.3     1  UNL1        0.1686
     16 O           0.0731    0.9788    2.6266 O.3     1  UNL1       -0.3130
     17 C           0.2165    0.5624    0.2338 C.3     1  UNL1       -0.0107
     18 C          -1.9950    0.5995    1.4024 C.3     1  UNL1       -0.0107
     19 C           1.8352    2.6348    2.5590 C.3     1  UNL1        0.1345
     20 O           2.7678    1.6022    2.8845 O.3     1  UNL1       -0.2196
     21 S           4.1826    1.8674    2.3898 S.O2    1  UNL1        0.1486
     22 O           4.9197    0.6722    2.6077 O.2     1  UNL1       -0.1300
     23 O           4.0588    2.4626    1.1054 O.2     1  UNL1       -0.1300
     24 N           4.8411    3.0173    3.3830 N.3     1  UNL1       -0.1833
     25 C           3.0639    5.9190    2.9396 C.3     1  UNL1       -0.0108
     26 H           1.5950    8.1666    2.5029 H       1  UNL1        0.0281
     27 H           1.6808    7.2436    0.9833 H       1  UNL1        0.0281
     28 H           0.1351    7.3805    1.8553 H       1  UNL1        0.0281
     29 H           0.8011    3.9562    5.8946 H       1  UNL1        0.0588
     30 H           1.9023    3.9088    4.5098 H       1  UNL1        0.0588
     31 H           0.2988   -0.5099    0.4113 H       1  UNL1        0.0281
     32 H           1.2130    1.0031    0.2029 H       1  UNL1        0.0281
     33 H          -0.2870    0.7356   -0.7173 H       1  UNL1        0.0281
     34 H          -1.9229   -0.4720    1.5887 H       1  UNL1        0.0281
     35 H          -2.5712    1.0689    2.1997 H       1  UNL1        0.0281
     36 H          -2.4913    0.7696    0.4469 H       1  UNL1        0.0281
     37 H           1.7814    2.7477    1.4761 H       1  UNL1        0.0639
     38 H           2.1617    3.5736    3.0063 H       1  UNL1        0.0639
     39 H           4.3199    3.3815    4.1156 H       1  UNL1        0.1462
     40 H           5.7479    3.3268    3.2321 H       1  UNL1        0.1462
     41 H           3.2968    5.0249    3.5178 H       1  UNL1        0.0281
     42 H           3.5440    5.8554    1.9630 H       1  UNL1        0.0281
     43 H           3.4304    6.7991    3.4680 H       1  UNL1        0.0281
@<TRIPOS>BOND
     1     1     2    1
     2     1    26    1
     3     1    27    1
     4     1    28    1
     5     2    13    1
     6     2     3    1
     7     2    25    1
     8     3     4    1
     9     4     5    1
    10     4    11    1
    11     4     6    1
    12     6     7    1
    13     6    29    1
    14     6    30    1
    15     7     8    1
    16     8    16    1
    17     8     9    1
    18     8    19    1
    19     9    10    1
    20     9    11    1
    21     9    14    1
    22    11    12    1
    23    11    13    1
    24    14    15    1
    25    15    16    1
    26    15    17    1
    27    15    18    1
    28    17    31    1
    29    17    32    1
    30    17    33    1
    31    18    34    1
    32    18    35    1
    33    18    36    1
    34    19    20    1
    35    19    37    1
    36    19    38    1
    37    20    21    1
    38    21    22    2
    39    21    23    2
    40    21    24    1
    41    24    39    1
    42    24    40    1
    43    25    41    1
    44    25    42    1
    45    25    43    1
