@<TRIPOS>MOLECULE
ZINC01530711
 45 47 0 0 0
SMALL
GASTEIGER

@<TRIPOS>ATOM
      1 C          -7.4261   -3.9862    3.0253 C.3     1  UNL1       -0.0486
      2 C          -6.2497   -3.4987    2.1771 C.3     1  UNL1        0.0366
      3 CA         -4.8832   -3.9522    2.7746 C.3     1  UNL1        0.0807
      4 HA         -4.9268   -3.8956    3.8623 H       1  UNL1        0.0576
      5 N          -3.8123   -3.0814    2.2847 N.am    1  UNL1       -0.2761
      6 C          -4.1778   -1.6559    2.1398 C.3     1  UNL1        0.1003
      7 H          -3.6335   -0.9241    2.7367 H       1  UNL1        0.0640
      8 S          -6.0098   -1.6715    2.3299 S.3     1  UNL1       -0.1275
      9 CA         -3.7222   -1.8526    0.6929 C.3     1  UNL1        0.1279
     10 HA         -4.5355   -1.7867   -0.0298 H       1  UNL1        0.0622
     11 C          -3.3391   -3.2721    1.0306 C.2     1  UNL1        0.2401
     12 O          -2.8256   -4.1936    0.4322 O.2     1  UNL1       -0.2734
     13 N          -2.5766   -1.0155    0.3283 N.am    1  UNL1       -0.2975
     14 C          -2.3594   -0.6958   -0.9628 C.2     1  UNL1        0.2518
     15 O          -3.1144   -1.1024   -1.8253 O.2     1  UNL1       -0.2699
     16 C          -1.2080    0.1456   -1.3293 C.ar    1  UNL1        0.1197
     17 C          -1.3391    1.5412   -1.3744 C.ar    1  UNL1        0.1357
     18 C          -0.2491    2.3235   -1.7200 C.ar    1  UNL1       -0.0190
     19 C           0.9645    1.7330   -2.0197 C.ar    1  UNL1       -0.0548
     20 C           1.1048    0.3583   -1.9783 C.ar    1  UNL1       -0.0190
     21 C           0.0278   -0.4429   -1.6352 C.ar    1  UNL1        0.1357
     22 O           0.1680   -1.7916   -1.5958 O.3     1  UNL1       -0.4942
     23 C           1.4557   -2.3198   -1.9195 C.3     1  UNL1        0.0788
     24 O          -2.5303    2.1228   -1.0862 O.3     1  UNL1       -0.4942
     25 C          -2.5890    3.5490   -1.1527 C.3     1  UNL1        0.0788
     26 C          -4.6022   -5.3734    2.3595 C.2     1  UNL1        0.0635
     27 O          -4.3165   -5.6224    1.2122 O.co2   1  UNL1       -0.5478
     28 C          -6.3972   -3.9283    0.7161 C.3     1  UNL1       -0.0486
     29 H          -8.3443   -3.5105    2.6807 H       1  UNL1        0.0244
     30 H          -7.5193   -5.0680    2.9296 H       1  UNL1        0.0244
     31 H          -7.2528   -3.7275    4.0698 H       1  UNL1        0.0244
     32 H          -1.9744   -0.6912    1.0162 H       1  UNL1        0.1499
     33 H          -0.3478    3.3983   -1.7554 H       1  UNL1        0.0654
     34 H           1.8091    2.3502   -2.2882 H       1  UNL1        0.0620
     35 H           2.0572   -0.0927   -2.2146 H       1  UNL1        0.0654
     36 H           2.1952   -1.9279   -1.2211 H       1  UNL1        0.0660
     37 H           1.4304   -3.4073   -1.8496 H       1  UNL1        0.0660
     38 H           1.7238   -2.0271   -2.9346 H       1  UNL1        0.0660
     39 H          -1.8765    3.9752   -0.4465 H       1  UNL1        0.0660
     40 H          -2.3400    3.8762   -2.1622 H       1  UNL1        0.0660
     41 H          -3.5952    3.8835   -0.9002 H       1  UNL1        0.0660
     42 H          -5.5099   -3.6293    0.1581 H       1  UNL1        0.0244
     43 H          -6.5105   -5.0112    0.6655 H       1  UNL1        0.0244
     44 H          -7.2763   -3.4504    0.2838 H       1  UNL1        0.0244
     45 OXT        -4.6693   -6.3626    3.2643 O.co2   1  UNL1       -0.5478
@<TRIPOS>UNITY_ATOM_ATTR
45 1
charge -1
@<TRIPOS>BOND
     1     1     2    1
     2     1    29    1
     3     1    30    1
     4     1    31    1
     5     2     8    1
     6     2     3    1
     7     2    28    1
     8     3     4    1
     9     3     5    1
    10     3    26    1
    11     5    11   am
    12     5     6    1
    13     6     7    1
    14     6     8    1
    15     6     9    1
    16     9    10    1
    17     9    11    1
    18     9    13    1
    19    11    12    2
    20    13    14   am
    21    13    32    1
    22    14    15    2
    23    14    16    1
    24    16    21   ar
    25    16    17   ar
    26    17    18   ar
    27    17    24    1
    28    18    19   ar
    29    18    33    1
    30    19    20   ar
    31    19    34    1
    32    20    21   ar
    33    20    35    1
    34    21    22    1
    35    22    23    1
    36    23    36    1
    37    23    37    1
    38    23    38    1
    39    24    25    1
    40    25    39    1
    41    25    40    1
    42    25    41    1
    43    26    27   ar
    44    26    45   ar
    45    28    42    1
    46    28    43    1
    47    28    44    1
