@<TRIPOS>MOLECULE
ZINC00896452
 66 68 0 0 0
SMALL
GASTEIGER

@<TRIPOS>ATOM
      1 C           5.9595   -7.1527   10.7762 C.3     1  UNL1       -0.0397
      2 C           5.2352   -6.6446    9.5562 C.ar    1  UNL1       -0.0504
      3 C           4.7317   -7.5418    8.6309 C.ar    1  UNL1       -0.0581
      4 C           4.0676   -7.0836    7.5120 C.ar    1  UNL1       -0.0475
      5 C           3.9038   -5.7110    7.3145 C.ar    1  UNL1        0.0594
      6 C           4.4191   -4.8112    8.2496 C.ar    1  UNL1       -0.0475
      7 C           5.0764   -5.2832    9.3668 C.ar    1  UNL1       -0.0581
      8 C           3.1938   -5.2131    6.1187 C.2     1  UNL1        0.3445
      9 O           2.7509   -5.9982    5.3044 O.2     1  UNL1       -0.2445
     10 O           3.0375   -3.8883    5.9312 O.3     1  UNL1       -0.4186
     11 C           2.4679   -3.4934    4.7615 C.ar    1  UNL1        0.1741
     12 C           3.2633   -3.0512    3.7160 C.ar    1  UNL1       -0.0152
     13 C           2.6826   -2.6506    2.5276 C.ar    1  UNL1       -0.0522
     14 C           1.3084   -2.6897    2.3780 C.ar    1  UNL1       -0.0104
     15 C           0.5088   -3.1245    3.4180 C.ar    1  UNL1       -0.0097
     16 C           1.0847   -3.5327    4.6110 C.ar    1  UNL1        0.1744
     17 O           0.2999   -3.9652    5.6335 O.3     1  UNL1       -0.4186
     18 C          -0.0488   -3.0556    6.5638 C.2     1  UNL1        0.3445
     19 O           0.2581   -1.8892    6.4179 O.2     1  UNL1       -0.2445
     20 C          -0.8042   -3.4762    7.7614 C.ar    1  UNL1        0.0594
     21 C          -1.1635   -4.8150    7.9296 C.ar    1  UNL1       -0.0475
     22 C          -1.8640   -5.2019    9.0532 C.ar    1  UNL1       -0.0581
     23 C          -2.2209   -4.2648   10.0066 C.ar    1  UNL1       -0.0504
     24 C          -1.8727   -2.9356    9.8437 C.ar    1  UNL1       -0.0581
     25 C          -1.1673   -2.5359    8.7277 C.ar    1  UNL1       -0.0475
     26 C          -2.9920   -4.6939   11.2282 C.3     1  UNL1       -0.0397
     27 C           0.6808   -2.2511    1.0799 C.3     1  UNL1        0.1198
     28 H          -0.3236   -2.6674    1.0031 H       1  UNL1        0.0698
     29 C           0.6041   -0.7236    1.0410 C.3     1  UNL1       -0.0023
     30 C          -0.2078    1.1643   -0.2395 C.3     1  UNL1       -0.0203
     31 C           1.1994    1.7640   -0.2698 C.3     1  UNL1       -0.0193
     32 C          -0.9609    1.5661   -1.5092 C.3     1  UNL1       -0.0193
     33 C          -0.9590    1.6877    0.9863 C.3     1  UNL1       -0.0193
     34 O           1.4741   -2.7163   -0.0138 O.3     1  UNL1       -0.3819
     35 H           7.0231   -7.2434   10.5558 H       1  UNL1        0.0278
     36 H           5.8176   -6.4536   11.6004 H       1  UNL1        0.0278
     37 H           5.5616   -8.1285   11.0549 H       1  UNL1        0.0278
     38 H           4.8591   -8.6031    8.7849 H       1  UNL1        0.0620
     39 H           3.6751   -7.7849    6.7905 H       1  UNL1        0.0626
     40 H           4.2997   -3.7482    8.1007 H       1  UNL1        0.0626
     41 H           5.4719   -4.5885   10.0929 H       1  UNL1        0.0620
     42 H           4.3368   -3.0193    3.8302 H       1  UNL1        0.0656
     43 H           3.3035   -2.3059    1.7139 H       1  UNL1        0.0622
     44 H          -0.5644   -3.1500    3.2998 H       1  UNL1        0.0659
     45 H          -0.8897   -5.5466    7.1838 H       1  UNL1        0.0626
     46 H          -2.1387   -6.2379    9.1866 H       1  UNL1        0.0620
     47 H          -2.1541   -2.2094   10.5919 H       1  UNL1        0.0620
     48 H          -0.8961   -1.4981    8.6018 H       1  UNL1        0.0626
     49 H          -4.0609   -4.6270   11.0252 H       1  UNL1        0.0278
     50 H          -2.7334   -5.7228   11.4782 H       1  UNL1        0.0278
     51 H          -2.7396   -4.0423   12.0646 H       1  UNL1        0.0278
     52 H           1.6123   -0.3094    1.0282 H       1  UNL1        0.0843
     53 H           0.0746   -0.3637    1.9231 H       1  UNL1        0.0843
     54 H           1.7346    1.3911   -1.1431 H       1  UNL1        0.0287
     55 H           1.1302    2.8505   -0.3227 H       1  UNL1        0.0287
     56 H           1.7360    1.4777    0.6347 H       1  UNL1        0.0287
     57 H          -1.9635    1.1389   -1.4876 H       1  UNL1        0.0287
     58 H          -1.0301    2.6527   -1.5621 H       1  UNL1        0.0287
     59 H          -0.4258    1.1932   -2.3825 H       1  UNL1        0.0287
     60 H          -0.4224    1.4014    1.8909 H       1  UNL1        0.0287
     61 H          -1.0282    2.7742    0.9335 H       1  UNL1        0.0287
     62 H          -1.9615    1.2604    1.0079 H       1  UNL1        0.0287
     63 H           2.3825   -2.3848   -0.0098 H       1  UNL1        0.2105
     64 N          -0.1186   -0.3068   -0.1755 N.4     1  UNL1        0.2328
     65 H          -1.0657   -0.7031   -0.1594 H       1  UNL1        0.2020
     66 H           0.3828   -0.6520   -1.0024 H       1  UNL1        0.2020
@<TRIPOS>UNITY_ATOM_ATTR
64 1
charge 1
@<TRIPOS>BOND
     1     1     2    1
     2     1    35    1
     3     1    36    1
     4     1    37    1
     5     2     7   ar
     6     2     3   ar
     7     3     4   ar
     8     3    38    1
     9     4     5   ar
    10     4    39    1
    11     5     6   ar
    12     5     8    1
    13     6     7   ar
    14     6    40    1
    15     7    41    1
    16     8     9    2
    17     8    10    1
    18    10    11    1
    19    11    16   ar
    20    11    12   ar
    21    12    13   ar
    22    12    42    1
    23    13    14   ar
    24    13    43    1
    25    14    15   ar
    26    14    27    1
    27    15    16   ar
    28    15    44    1
    29    16    17    1
    30    17    18    1
    31    18    19    2
    32    18    20    1
    33    20    25   ar
    34    20    21   ar
    35    21    22   ar
    36    21    45    1
    37    22    23   ar
    38    22    46    1
    39    23    24   ar
    40    23    26    1
    41    24    25   ar
    42    24    47    1
    43    25    48    1
    44    26    49    1
    45    26    50    1
    46    26    51    1
    47    27    28    1
    48    27    29    1
    49    27    34    1
    50    29    52    1
    51    29    53    1
    52    29    64    1
    53    30    31    1
    54    30    32    1
    55    30    33    1
    56    30    64    1
    57    31    54    1
    58    31    55    1
    59    31    56    1
    60    32    57    1
    61    32    58    1
    62    32    59    1
    63    33    60    1
    64    33    61    1
    65    33    62    1
    66    34    63    1
    67    64    65    1
    68    64    66    1
