@<TRIPOS>MOLECULE
ZINC11592709
 32 33 0 0 0
SMALL
GASTEIGER

@<TRIPOS>ATOM
      1 C          -1.3266    2.1573    0.0201 C.3     1  UNL1       -0.0332
      2 C          -0.0171    1.4115    0.0098 C.ar    1  UNL1        0.0302
      3 C           1.1534    2.0845    0.0022 C.ar    1  UNL1        0.0199
      4 N           2.3333    1.3916   -0.0127 N.ar    1  UNL1       -0.2737
      5 C           2.3379    0.0462   -0.0200 C.ar    1  UNL1        0.3313
      6 O           3.3978   -0.5494   -0.0329 O.2     1  UNL1       -0.2464
      7 N           1.1858   -0.6496   -0.0128 N.ar    1  UNL1       -0.2747
      8 H           1.2078   -1.6493   -0.0185 H       1  UNL1        0.1734
      9 C           0.0021   -0.0041    0.0020 C.ar    1  UNL1        0.2568
     10 O          -1.0408   -0.6329    0.0082 O.2     1  UNL1       -0.2674
     11 C           3.6034    2.1217   -0.0210 C.3     1  UNL1        0.1420
     12 H           4.1654    1.8756   -0.9219 H       1  UNL1        0.0840
     13 C           4.4293    1.7499    1.2293 C.3     1  UNL1        0.0244
     14 C           5.0526    3.1166    1.6291 C.3     1  UNL1        0.1617
     15 H           5.2458    3.1622    2.7009 H       1  UNL1        0.0643
     16 C           3.9163    4.0892    1.2247 C.3     1  UNL1        0.1131
     17 H           3.1614    4.1386    2.0094 H       1  UNL1        0.0643
     18 O           3.3539    3.5313    0.0263 O.3     1  UNL1       -0.3486
     19 C           4.4837    5.4825    0.9463 C.3     1  UNL1        0.0727
     20 O           3.4160    6.3761    0.6245 O.3     1  UNL1       -0.3924
     21 N           6.2732    3.3835    0.8641 N.2     1  UNL1        0.0825
     22 N           7.2172    2.8197    1.0974 N.2     1  UNL1       -0.0144
     23 N           8.1612    2.2559    1.3307 N.2     1  UNL1       -0.3282
     24 H          -2.1509    1.4442    0.0201 H       1  UNL1        0.0280
     25 H          -1.3838    2.7788    0.9137 H       1  UNL1        0.0280
     26 H          -1.3922    2.7885   -0.8662 H       1  UNL1        0.0280
     27 H           1.1584    3.1644    0.0080 H       1  UNL1        0.0816
     28 H           3.7840    1.3713    2.0220 H       1  UNL1        0.0332
     29 H           5.2053    1.0260    0.9804 H       1  UNL1        0.0332
     30 H           5.0068    5.8452    1.8312 H       1  UNL1        0.0584
     31 H           5.1793    5.4309    0.1087 H       1  UNL1        0.0584
     32 H           3.7030    7.2801    0.4358 H       1  UNL1        0.2095
@<TRIPOS>UNITY_ATOM_ATTR
22 1
charge 1
23 1
charge -1
@<TRIPOS>BOND
     1     1     2    1
     2     1    24    1
     3     1    25    1
     4     1    26    1
     5     2     9   ar
     6     2     3   ar
     7     3     4   ar
     8     3    27    1
     9     4     5   ar
    10     4    11    1
    11     5     6    2
    12     5     7   ar
    13     7     8    1
    14     7     9   ar
    15     9    10    2
    16    11    12    1
    17    11    18    1
    18    11    13    1
    19    13    14    1
    20    13    28    1
    21    13    29    1
    22    14    15    1
    23    14    16    1
    24    14    21    1
    25    16    17    1
    26    16    18    1
    27    16    19    1
    28    19    20    1
    29    19    30    1
    30    19    31    1
    31    20    32    1
    32    21    22    2
    33    22    23    2
