@<TRIPOS>MOLECULE
ZINC06021033
 24 24 0 0 0
SMALL
GASTEIGER

@<TRIPOS>ATOM
      1 C          -2.2343    1.0162   -1.0204 C.3     1  UNL1       -0.0214
      2 C          -0.7955    1.5269   -1.1198 C.3     1  UNL1       -0.0232
      3 H          -0.3538    1.1885   -2.0571 H       1  UNL1        0.0850
      4 C          -0.7931    3.0563   -1.0777 C.3     1  UNL1        0.0152
      5 C           0.6090    3.5627   -1.2986 C.ar    1  UNL1       -0.0421
      6 C           1.4479    3.7676   -0.2192 C.ar    1  UNL1       -0.0584
      7 C           2.7356    4.2275   -0.4222 C.ar    1  UNL1       -0.0615
      8 C           3.1809    4.4926   -1.7038 C.ar    1  UNL1       -0.0617
      9 C           2.3402    4.2927   -2.7827 C.ar    1  UNL1       -0.0615
     10 C           1.0543    3.8278   -2.5802 C.ar    1  UNL1       -0.0584
     11 H          -2.2360   -0.0734   -1.0504 H       1  UNL1        0.0284
     12 H          -2.6760    1.3546   -0.0831 H       1  UNL1        0.0284
     13 H          -2.8159    1.4036   -1.8569 H       1  UNL1        0.0284
     14 H          -1.4463    3.4423   -1.8603 H       1  UNL1        0.0368
     15 H          -1.1523    3.3936   -0.1055 H       1  UNL1        0.0368
     16 H           1.0985    3.5648    0.7824 H       1  UNL1        0.0620
     17 H           3.3923    4.3841    0.4208 H       1  UNL1        0.0618
     18 H           4.1855    4.8561   -1.8620 H       1  UNL1        0.0618
     19 H           2.6880    4.5001   -3.7840 H       1  UNL1        0.0618
     20 H           0.3973    3.6719   -3.4231 H       1  UNL1        0.0620
     21 H           0.0021   -0.0041    0.0020 H       1  UNL1        0.1997
     22 H           0.9253    1.3792    0.0006 H       1  UNL1        0.1997
     23 N          -0.0252    1.0139    0.0269 N.4     1  UNL1        0.2208
     24 H          -0.4761    1.3157    0.8986 H       1  UNL1        0.1997
@<TRIPOS>UNITY_ATOM_ATTR
23 1
charge 1
@<TRIPOS>BOND
     1     1     2    1
     2     1    11    1
     3     1    12    1
     4     1    13    1
     5     2     3    1
     6     2     4    1
     7     2    23    1
     8     4     5    1
     9     4    14    1
    10     4    15    1
    11     5    10   ar
    12     5     6   ar
    13     6     7   ar
    14     6    16    1
    15     7     8   ar
    16     7    17    1
    17     8     9   ar
    18     8    18    1
    19     9    10   ar
    20     9    19    1
    21    10    20    1
    22    21    23    1
    23    22    23    1
    24    23    24    1
