@<TRIPOS>MOLECULE
ZINC03831492
 91 96 0 0 0
SMALL
GASTEIGER

@<TRIPOS>ATOM
      1 C          -1.2605   13.7516   -1.6763 C.3     1  UNL1       -0.0305
      2 C          -1.3561   12.2267   -1.5970 C.3     1  UNL1        0.0931
      3 O          -0.0201   11.6584   -1.5774 O.3     1  UNL1       -0.4338
      4 C           0.0725   10.3178   -1.5089 C.2     1  UNL1        0.5158
      5 O          -0.9349    9.6409   -1.4667 O.2     1  UNL1       -0.2025
      6 O           1.2814    9.7271   -1.4872 O.3     1  UNL1       -0.3874
      7 C           1.3039    8.3700   -1.4174 C.ar    1  UNL1        0.2177
      8 C           1.3066    7.6139   -2.5866 C.ar    1  UNL1        0.1668
      9 C           1.3290    6.2333   -2.5184 C.ar    1  UNL1       -0.0021
     10 C           1.3489    5.5967   -1.2747 C.ar    1  UNL1        0.0661
     11 C           1.3402    6.3578   -0.1029 C.ar    1  UNL1       -0.0021
     12 C           1.3236    7.7381   -0.1768 C.ar    1  UNL1        0.1668
     13 O           1.3213    8.4795    0.9632 O.3     1  UNL1       -0.4913
     14 C           1.3423    7.7659    2.2011 C.3     1  UNL1        0.0790
     15 C           1.3728    4.1236   -1.1989 C.2     1  UNL1        0.3398
     16 O           1.3753    3.4628   -2.2185 O.2     1  UNL1       -0.2449
     17 O           1.3920    3.5110    0.0010 O.3     1  UNL1       -0.4552
     18 C           1.4150    2.0591   -0.0004 C.3     1  UNL1        0.1306
     19 H           1.9282    1.7041   -0.8941 H       1  UNL1        0.0760
     20 C          -0.0187    1.5261    0.0104 C.3     1  UNL1       -0.0052
     21 C           0.0021   -0.0041    0.0020 C.3     1  UNL1        0.0065
     22 H           0.4993   -0.3573   -0.9013 H       1  UNL1        0.0357
     23 C          -1.4390   -0.5246    0.0393 C.3     1  UNL1       -0.0280
     24 C          -3.5239   -0.3614    1.2773 C.3     1  UNL1       -0.0271
     25 C          -4.2200    0.4775    2.3581 C.3     1  UNL1        0.0152
     26 C          -3.4268    0.3532    3.6344 C.ar    1  UNL1       -0.0086
     27 C          -3.8106    0.6899    4.9881 C.ar    1  UNL1        0.0037
     28 C          -4.9835    1.2157    5.5394 C.ar    1  UNL1       -0.0489
     29 C          -4.9996    1.4121    6.8975 C.ar    1  UNL1       -0.0193
     30 C          -3.9063    1.1079    7.6997 C.ar    1  UNL1        0.1221
     31 C          -2.7303    0.5860    7.1774 C.ar    1  UNL1        0.0040
     32 C          -2.6900    0.3765    5.8008 C.ar    1  UNL1        0.0506
     33 N          -1.7142   -0.1116    4.9792 N.ar    1  UNL1       -0.3532
     34 H          -0.8362   -0.4053    5.2687 H       1  UNL1        0.1658
     35 C          -2.1619   -0.1240    3.6851 C.ar    1  UNL1        0.0689
     36 C          -1.4121   -0.5843    2.4601 C.3     1  UNL1        0.0208
     37 H          -1.4017   -1.6737    2.4264 H       1  UNL1        0.0919
     38 C           0.0245   -0.0593    2.5001 C.3     1  UNL1        0.0002
     39 C           0.7539   -0.5138    1.2331 C.3     1  UNL1       -0.0124
     40 H           0.7900   -1.6029    1.2086 H       1  UNL1        0.0316
     41 C           2.1778    0.0395    1.2407 C.3     1  UNL1        0.0894
     42 H           2.7034   -0.2997    0.3481 H       1  UNL1        0.0443
     43 C           2.1371    1.5687    1.2571 C.3     1  UNL1        0.1083
     44 H           3.1546    1.9597    1.2598 H       1  UNL1        0.0641
     45 O           1.4515    2.0150    2.4288 O.3     1  UNL1       -0.3753
     46 C           1.8980    3.2819    2.9163 C.3     1  UNL1        0.0370
     47 C           2.9012   -0.4549    2.4668 C.2     1  UNL1        0.3129
     48 O           2.3342   -1.1761    3.2531 O.2     1  UNL1       -0.2504
     49 O           4.1755   -0.0941    2.6854 O.3     1  UNL1       -0.4677
     50 C           4.8093   -0.6078    3.8865 C.3     1  UNL1        0.0817
     51 O          -3.9907    1.3286    9.0384 O.3     1  UNL1       -0.4950
     52 C          -5.2196    1.8665    9.5310 C.3     1  UNL1        0.0788
     53 O           1.2878    8.2341   -3.7967 O.3     1  UNL1       -0.4913
     54 C           1.2923    7.3970   -4.9548 C.3     1  UNL1        0.0790
     55 H          -0.7186   14.1273   -0.8084 H       1  UNL1        0.0262
     56 H          -0.7315   14.0357   -2.5860 H       1  UNL1        0.0262
     57 H          -2.2635   14.1782   -1.6911 H       1  UNL1        0.0262
     58 H          -1.8981   11.8509   -2.4649 H       1  UNL1        0.0696
     59 H          -1.8852   11.9426   -0.6873 H       1  UNL1        0.0696
     60 H           1.3315    5.6473   -3.4257 H       1  UNL1        0.0663
     61 H           1.3507    5.8681    0.8597 H       1  UNL1        0.0663
     62 H           0.4626    7.1256    2.2664 H       1  UNL1        0.0660
     63 H           2.2423    7.1532    2.2521 H       1  UNL1        0.0660
     64 H           1.3380    8.4748    3.0292 H       1  UNL1        0.0660
     65 H          -0.5466    1.8867   -0.8724 H       1  UNL1        0.0306
     66 H          -0.5296    1.8771    0.9070 H       1  UNL1        0.0306
     67 H          -1.9839   -0.1506   -0.8274 H       1  UNL1        0.0817
     68 H          -1.4331   -1.6145    0.0247 H       1  UNL1        0.0817
     69 H          -3.6675   -1.4206    1.4909 H       1  UNL1        0.0818
     70 H          -3.9521   -0.1261    0.3029 H       1  UNL1        0.0818
     71 H          -5.2325    0.1060    2.5167 H       1  UNL1        0.0366
     72 H          -4.2553    1.5217    2.0473 H       1  UNL1        0.0366
     73 H          -5.8378    1.4563    4.9241 H       1  UNL1        0.0625
     74 H          -5.8896    1.8161    7.3571 H       1  UNL1        0.0654
     75 H          -1.8857    0.3536    7.8092 H       1  UNL1        0.0675
     76 H           0.5343   -0.4572    3.3774 H       1  UNL1        0.0327
     77 H           0.0159    1.0298    2.5455 H       1  UNL1        0.0327
     78 H           2.9572    3.2222    3.1666 H       1  UNL1        0.0524
     79 H           1.7485    4.0402    2.1477 H       1  UNL1        0.0524
     80 H           1.3288    3.5497    3.8065 H       1  UNL1        0.0524
     81 H           4.8144   -1.6974    3.8570 H       1  UNL1        0.0661
     82 H           5.8343   -0.2411    3.9417 H       1  UNL1        0.0661
     83 H           4.2551   -0.2706    4.7624 H       1  UNL1        0.0661
     84 H          -5.1533    1.9934   10.6116 H       1  UNL1        0.0660
     85 H          -5.4070    2.8326    9.0625 H       1  UNL1        0.0660
     86 H          -6.0356    1.1836    9.2948 H       1  UNL1        0.0660
     87 H           2.1922    6.7819   -4.9550 H       1  UNL1        0.0660
     88 H           0.4125    6.7537   -4.9416 H       1  UNL1        0.0660
     89 H           1.2758    8.0169   -5.8512 H       1  UNL1        0.0660
     90 N          -2.0818   -0.0158    1.2696 N.4     1  UNL1        0.2421
     91 H          -1.9876    1.0064    1.2935 H       1  UNL1        0.2040
@<TRIPOS>UNITY_ATOM_ATTR
90 1
charge 1
@<TRIPOS>BOND
     1     1     2    1
     2     1    55    1
     3     1    56    1
     4     1    57    1
     5     2     3    1
     6     2    58    1
     7     2    59    1
     8     3     4    1
     9     4     5    2
    10     4     6    1
    11     6     7    1
    12     7    12   ar
    13     7     8   ar
    14     8     9   ar
    15     8    53    1
    16     9    10   ar
    17     9    60    1
    18    10    11   ar
    19    10    15    1
    20    11    12   ar
    21    11    61    1
    22    12    13    1
    23    13    14    1
    24    14    62    1
    25    14    63    1
    26    14    64    1
    27    15    16    2
    28    15    17    1
    29    17    18    1
    30    18    19    1
    31    18    43    1
    32    18    20    1
    33    20    21    1
    34    20    65    1
    35    20    66    1
    36    21    22    1
    37    21    39    1
    38    21    23    1
    39    23    67    1
    40    23    68    1
    41    23    90    1
    42    24    25    1
    43    24    69    1
    44    24    70    1
    45    24    90    1
    46    25    26    1
    47    25    71    1
    48    25    72    1
    49    26    35   ar
    50    26    27   ar
    51    27    32   ar
    52    27    28   ar
    53    28    29   ar
    54    28    73    1
    55    29    30   ar
    56    29    74    1
    57    30    31   ar
    58    30    51    1
    59    31    32   ar
    60    31    75    1
    61    32    33   ar
    62    33    34    1
    63    33    35   ar
    64    35    36    1
    65    36    37    1
    66    36    38    1
    67    36    90    1
    68    38    39    1
    69    38    76    1
    70    38    77    1
    71    39    40    1
    72    39    41    1
    73    41    42    1
    74    41    43    1
    75    41    47    1
    76    43    44    1
    77    43    45    1
    78    45    46    1
    79    46    78    1
    80    46    79    1
    81    46    80    1
    82    47    48    2
    83    47    49    1
    84    49    50    1
    85    50    81    1
    86    50    82    1
    87    50    83    1
    88    51    52    1
    89    52    84    1
    90    52    85    1
    91    52    86    1
    92    53    54    1
    93    54    87    1
    94    54    88    1
    95    54    89    1
    96    90    91    1
