@<TRIPOS>MOLECULE
ZINC03831515
 46 49 0 0 0
SMALL
GASTEIGER

@<TRIPOS>ATOM
      1 C          -1.3880    3.0638   -1.9839 C.3     1  UNL1       -0.0246
      2 C          -1.3185    3.1930   -0.4616 C.3     1  UNL1        0.1138
      3 C          -2.5803    3.8851    0.0497 C.3     1  UNL1       -0.0125
      4 C          -2.5662    5.3731   -0.3024 C.3     1  UNL1       -0.0453
      5 C          -1.3443    6.0342    0.3364 C.3     1  UNL1       -0.0251
      6 H          -1.3700    5.8319    1.4156 H       1  UNL1        0.0315
      7 C          -0.0706    5.4166   -0.2403 C.3     1  UNL1       -0.0304
      8 H           0.7927    5.8440    0.3075 H       1  UNL1        0.0308
      9 C          -0.0707    3.9201    0.0110 C.3     1  UNL1        0.0024
     10 H          -0.0208    3.7819    1.1179 H       1  UNL1        0.0342
     11 C           1.1715    3.2366   -0.5577 C.3     1  UNL1       -0.0363
     12 C           1.2397    1.8176    0.0138 C.3     1  UNL1        0.0453
     13 C          -0.1153    1.1578    0.0185 C.2     1  UNL1        0.3076
     14 O          -0.1590   -0.0641    0.0145 O.2     1  UNL1       -0.2508
     15 O          -1.2632    1.8395    0.0816 O.3     1  UNL1       -0.4581
     16 C           0.1064    5.7634   -1.7126 C.3     1  UNL1       -0.0458
     17 C           0.2519    7.2883   -1.8577 C.3     1  UNL1       -0.0302
     18 C          -1.0143    7.8966   -1.2805 C.2     1  UNL1       -0.0560
     19 C          -1.7474    8.6922   -2.0471 C.2     1  UNL1       -0.0149
     20 C          -3.0040    9.2661   -1.5417 C.2     1  UNL1        0.1787
     21 O          -3.6591   10.0306   -2.2249 O.2     1  UNL1       -0.2879
     22 C          -3.4518    8.8917   -0.1895 C.2     1  UNL1       -0.0180
     23 C          -2.7013    8.1004    0.5584 C.2     1  UNL1       -0.0702
     24 C          -1.3813    7.5447    0.1284 C.3     1  UNL1        0.0108
     25 C          -0.3296    8.1705    1.0524 C.3     1  UNL1       -0.0521
     26 H          -0.4590    2.6308   -2.3546 H       1  UNL1        0.0268
     27 H          -2.2235    2.4188   -2.2560 H       1  UNL1        0.0268
     28 H          -1.5312    4.0497   -2.4261 H       1  UNL1        0.0268
     29 H          -3.4575    3.4154   -0.4006 H       1  UNL1        0.0304
     30 H          -2.6383    3.7721    1.1349 H       1  UNL1        0.0304
     31 H          -2.5384    5.5079   -1.3806 H       1  UNL1        0.0270
     32 H          -3.4732    5.8411    0.0900 H       1  UNL1        0.0270
     33 H           2.0612    3.7917   -0.2357 H       1  UNL1        0.0274
     34 H           1.1576    3.2107   -1.6405 H       1  UNL1        0.0274
     35 H           1.6212    1.8633    1.0399 H       1  UNL1        0.0378
     36 H           1.9347    1.2198   -0.5832 H       1  UNL1        0.0378
     37 H          -0.7688    5.4683   -2.2889 H       1  UNL1        0.0271
     38 H           0.9967    5.2813   -2.1103 H       1  UNL1        0.0271
     39 H           0.3379    7.5448   -2.9122 H       1  UNL1        0.0310
     40 H           1.1248    7.6299   -1.3119 H       1  UNL1        0.0310
     41 H          -1.4171    8.9257   -3.0487 H       1  UNL1        0.0655
     42 H          -4.3927    9.2632    0.1904 H       1  UNL1        0.0653
     43 H          -3.0591    7.8372    1.5423 H       1  UNL1        0.0582
     44 H           0.6554    7.7779    0.8002 H       1  UNL1        0.0241
     45 H          -0.3327    9.2531    0.9256 H       1  UNL1        0.0241
     46 H          -0.5641    7.9254    2.0883 H       1  UNL1        0.0241
@<TRIPOS>BOND
     1     1     2    1
     2     1    26    1
     3     1    27    1
     4     1    28    1
     5     2     9    1
     6     2    15    1
     7     2     3    1
     8     3     4    1
     9     3    29    1
    10     3    30    1
    11     4     5    1
    12     4    31    1
    13     4    32    1
    14     5     6    1
    15     5    24    1
    16     5     7    1
    17     7     8    1
    18     7     9    1
    19     7    16    1
    20     9    10    1
    21     9    11    1
    22    11    12    1
    23    11    33    1
    24    11    34    1
    25    12    13    1
    26    12    35    1
    27    12    36    1
    28    13    14    2
    29    13    15    1
    30    16    17    1
    31    16    37    1
    32    16    38    1
    33    17    18    1
    34    17    39    1
    35    17    40    1
    36    18    24    1
    37    18    19    2
    38    19    20    1
    39    19    41    1
    40    20    21    2
    41    20    22    1
    42    22    23    2
    43    22    42    1
    44    23    24    1
    45    23    43    1
    46    24    25    1
    47    25    44    1
    48    25    45    1
    49    25    46    1
