@<TRIPOS>MOLECULE
ZINC03831088
 57 60 0 0 0
SMALL
GASTEIGER

@<TRIPOS>ATOM
      1 C           0.8994    0.7942   -0.6043 C.3     1  UNL1       -0.0587
      2 C           0.1261    1.4805    0.5189 C.3     1  UNL1       -0.0212
      3 H           0.2952    2.5731    0.4076 H       1  UNL1        0.0343
      4 C           0.6516    1.0707    1.8831 C.3     1  UNL1       -0.0432
      5 C           0.1041   -0.2754    2.3788 C.3     1  UNL1       -0.0308
      6 H           0.4802   -1.0795    1.7606 H       1  UNL1        0.0308
      7 C           0.6431   -0.4370    3.8079 C.3     1  UNL1       -0.0292
      8 H           0.4868    0.4822    4.3870 H       1  UNL1        0.0310
      9 C           2.1529   -0.7867    3.6847 C.3     1  UNL1       -0.0463
     10 C           2.1496   -2.3026    3.3948 C.3     1  UNL1       -0.0162
     11 C           0.9044   -2.8642    4.1179 C.3     1  UNL1        0.1315
     12 C           0.0589   -1.6585    4.5241 C.3     1  UNL1        0.0091
     13 C          -1.4281   -1.8007    4.3914 C.3     1  UNL1       -0.0178
     14 C          -2.0494   -1.4370    3.0584 C.3     1  UNL1        0.0600
     15 H          -3.1089   -1.1448    3.2881 H       1  UNL1        0.0596
     16 C          -1.4152   -0.2399    2.3860 C.3     1  UNL1        0.0007
     17 H          -1.7054    0.6635    2.9770 H       1  UNL1        0.0340
     18 C          -1.9595   -0.0127    0.9755 C.3     1  UNL1        0.0133
     19 C          -1.3620    1.2452    0.4125 C.2     1  UNL1       -0.0531
     20 C          -2.0941    2.1739   -0.1966 C.2     1  UNL1       -0.0146
     21 C          -3.5526    2.0325   -0.3075 C.2     1  UNL1        0.1787
     22 O          -4.2088    2.8185   -0.9640 O.2     1  UNL1       -0.2879
     23 C          -4.1994    0.9135    0.3982 C.2     1  UNL1       -0.0180
     24 C          -3.4539   -0.0051    0.9890 C.2     1  UNL1       -0.0701
     25 C          -1.5404   -1.1545    0.0474 C.3     1  UNL1       -0.0520
     26 O          -2.1553   -2.5912    2.2313 O.3     1  UNL1       -0.3914
     27 C           0.3284   -1.4399    6.0389 C.3     1  UNL1       -0.0562
     28 C           0.1871   -3.8256    3.2144 C.2     1  UNL1        0.1902
     29 O           0.2218   -3.6697    2.0174 O.2     1  UNL1       -0.2919
     30 C          -0.5761   -4.9849    3.8014 C.3     1  UNL1        0.1052
     31 O          -1.2697   -5.6749    2.7599 O.3     1  UNL1       -0.3874
     32 O           1.3327   -3.5639    5.2988 O.3     1  UNL1       -0.3804
     33 H           0.8943   -0.2838   -0.4430 H       1  UNL1        0.0235
     34 H           1.9277    1.1557   -0.6112 H       1  UNL1        0.0235
     35 H           0.4283    1.0206   -1.5608 H       1  UNL1        0.0235
     36 H           1.7445    1.0117    1.8447 H       1  UNL1        0.0274
     37 H           0.3878    1.8398    2.6201 H       1  UNL1        0.0274
     38 H           2.6793   -0.5750    4.6163 H       1  UNL1        0.0269
     39 H           2.6150   -0.2417    2.8616 H       1  UNL1        0.0269
     40 H           3.0520   -2.7658    3.7897 H       1  UNL1        0.0297
     41 H           2.0680   -2.4827    2.3239 H       1  UNL1        0.0297
     42 H          -1.8930   -1.1511    5.1613 H       1  UNL1        0.0297
     43 H          -1.7318   -2.8187    4.6666 H       1  UNL1        0.0297
     44 H          -1.6028    3.0334   -0.6288 H       1  UNL1        0.0656
     45 H          -5.2764    0.8466    0.4337 H       1  UNL1        0.0653
     46 H          -3.9585   -0.8016    1.5136 H       1  UNL1        0.0582
     47 H          -2.0639   -2.0666    0.3341 H       1  UNL1        0.0241
     48 H          -1.7937   -0.8982   -0.9813 H       1  UNL1        0.0241
     49 H          -0.4649   -1.3123    0.1282 H       1  UNL1        0.0241
     50 H          -2.5616   -3.3522    2.6681 H       1  UNL1        0.2098
     51 H          -0.0500   -2.2930    6.6021 H       1  UNL1        0.0236
     52 H           1.4009   -1.3408    6.2066 H       1  UNL1        0.0236
     53 H          -0.1766   -0.5327    6.3706 H       1  UNL1        0.0236
     54 H           0.0619   -5.6115    4.2490 H       1  UNL1        0.0637
     55 H          -1.2945   -4.6140    4.5325 H       1  UNL1        0.0637
     56 H          -1.7835   -6.4348    3.0659 H       1  UNL1        0.2100
     57 H           1.8758   -4.3435    5.1188 H       1  UNL1        0.2108
@<TRIPOS>BOND
     1     1     2    1
     2     1    33    1
     3     1    34    1
     4     1    35    1
     5     2     3    1
     6     2    19    1
     7     2     4    1
     8     4     5    1
     9     4    36    1
    10     4    37    1
    11     5     6    1
    12     5    16    1
    13     5     7    1
    14     7     8    1
    15     7    12    1
    16     7     9    1
    17     9    10    1
    18     9    38    1
    19     9    39    1
    20    10    11    1
    21    10    40    1
    22    10    41    1
    23    11    12    1
    24    11    28    1
    25    11    32    1
    26    12    13    1
    27    12    27    1
    28    13    14    1
    29    13    42    1
    30    13    43    1
    31    14    15    1
    32    14    16    1
    33    14    26    1
    34    16    17    1
    35    16    18    1
    36    18    24    1
    37    18    19    1
    38    18    25    1
    39    19    20    2
    40    20    21    1
    41    20    44    1
    42    21    22    2
    43    21    23    1
    44    23    24    2
    45    23    45    1
    46    24    46    1
    47    25    47    1
    48    25    48    1
    49    25    49    1
    50    26    50    1
    51    27    51    1
    52    27    52    1
    53    27    53    1
    54    28    29    2
    55    28    30    1
    56    30    31    1
    57    30    54    1
    58    30    55    1
    59    31    56    1
    60    32    57    1
