@<TRIPOS>MOLECULE
ZINC03830541
 36 36 0 0 0
SMALL
GASTEIGER

@<TRIPOS>ATOM
      1 C          -4.3016    3.8970    0.3478 C.3     1  UNL1        0.0557
      2 C          -4.4823    3.5452   -1.1302 C.3     1  UNL1        0.0405
      3 CL         -5.8682    4.4802   -1.8055 Cl      1  UNL1       -0.1237
      4 N          -3.1755    3.1373    0.8964 N.am    1  UNL1       -0.1401
      5 C          -1.9308    3.6524    0.8542 C.2     1  UNL1        0.3246
      6 O          -1.7426    4.7466    0.3611 O.2     1  UNL1       -0.2507
      7 N          -0.8948    2.9535    1.3589 N.am    1  UNL1       -0.2876
      8 C           0.4582    3.5134    1.3130 C.3     1  UNL1        0.1036
      9 H           0.4054    4.5999    1.3821 H       1  UNL1        0.0575
     10 C           1.1334    3.1165   -0.0050 C.3     1  UNL1        0.1065
     11 H           2.1209    3.5745   -0.0609 H       1  UNL1        0.0640
     12 C           1.2722    1.5918   -0.0538 C.3     1  UNL1        0.1112
     13 H           1.8009    1.3030   -0.9623 H       1  UNL1        0.0646
     14 C           2.0611    1.1182    1.1697 C.3     1  UNL1        0.1129
     15 H           3.0647    1.5426    1.1417 H       1  UNL1        0.0647
     16 O           1.3952    1.5467    2.3593 O.3     1  UNL1       -0.3414
     17 C           1.2786    2.9656    2.4837 C.3     1  UNL1        0.1777
     18 H           2.2719    3.4143    2.4730 H       1  UNL1        0.0928
     19 O           0.6249    3.2839    3.7139 O.3     1  UNL1       -0.3654
     20 C           2.1524   -0.4091    1.1581 C.3     1  UNL1        0.0730
     21 O           2.9858   -0.8446    2.2341 O.3     1  UNL1       -0.3924
     22 O          -0.0256    0.9936   -0.0461 O.3     1  UNL1       -0.3865
     23 O           0.3362    3.5594   -1.1051 O.3     1  UNL1       -0.3871
     24 N          -3.3753    1.9755    1.4200 N.2     1  UNL1        0.0527
     25 O          -4.5003    1.5100    1.4582 O.2     1  UNL1       -0.1256
     26 H          -5.2103    3.6458    0.8948 H       1  UNL1        0.0498
     27 H          -4.1020    4.9641    0.4455 H       1  UNL1        0.0498
     28 H          -3.5736    3.7965   -1.6773 H       1  UNL1        0.0446
     29 H          -4.6819    2.4781   -1.2280 H       1  UNL1        0.0446
     30 H          -1.0451    2.0798    1.7526 H       1  UNL1        0.1509
     31 H           1.0895    2.9658    4.5000 H       1  UNL1        0.2125
     32 H           1.1554   -0.8336    1.2759 H       1  UNL1        0.0584
     33 H           2.5788   -0.7404    0.2112 H       1  UNL1        0.0584
     34 H           3.0890   -1.8046    2.2880 H       1  UNL1        0.2095
     35 H          -0.0134    0.0271   -0.0736 H       1  UNL1        0.2100
     36 H           0.7019    3.3344   -1.9716 H       1  UNL1        0.2100
@<TRIPOS>BOND
     1     1     2    1
     2     1     4    1
     3     1    26    1
     4     1    27    1
     5     2     3    1
     6     2    28    1
     7     2    29    1
     8     4     5   am
     9     4    24    1
    10     5     6    2
    11     5     7   am
    12     7     8    1
    13     7    30    1
    14     8     9    1
    15     8    17    1
    16     8    10    1
    17    10    11    1
    18    10    12    1
    19    10    23    1
    20    12    13    1
    21    12    14    1
    22    12    22    1
    23    14    15    1
    24    14    16    1
    25    14    20    1
    26    16    17    1
    27    17    18    1
    28    17    19    1
    29    19    31    1
    30    20    21    1
    31    20    32    1
    32    20    33    1
    33    21    34    1
    34    22    35    1
    35    23    36    1
    36    24    25    2
