@<TRIPOS>MOLECULE
ZINC03830834
 32 32 0 0 0
SMALL
GASTEIGER

@<TRIPOS>ATOM
      1 C           4.4658    5.8099    1.2496 C.3     1  UNL1       -0.0362
      2 C           4.5742    4.3954    0.6767 C.3     1  UNL1        0.0634
      3 C           5.6209    3.6049    1.4644 C.3     1  UNL1       -0.0362
      4 C           3.2180    3.6956    0.7860 C.3     1  UNL1        0.0083
      5 C           3.3646    2.2310    0.3682 C.3     1  UNL1        0.0907
      6 C           3.9908    2.1586   -1.0259 C.3     1  UNL1       -0.0318
      7 C           2.0070    1.5773    0.3436 C.ar    1  UNL1       -0.0162
      8 C           0.8836    2.3284    0.0523 C.ar    1  UNL1       -0.0545
      9 C          -0.3617    1.7293    0.0292 C.ar    1  UNL1       -0.0430
     10 C          -0.4839    0.3776    0.2977 C.ar    1  UNL1        0.0410
     11 C           0.6408   -0.3736    0.5892 C.ar    1  UNL1       -0.0430
     12 C           1.8856    0.2266    0.6120 C.ar    1  UNL1       -0.0545
     13 CL         -2.0478   -0.3755    0.2693 Cl      1  UNL1       -0.0835
     14 O           4.2041    1.5507    1.3034 O.3     1  UNL1       -0.3841
     15 O           4.9644    4.4661   -0.6961 O.3     1  UNL1       -0.3890
     16 H           4.1681    5.7560    2.2968 H       1  UNL1        0.0257
     17 H           5.4320    6.3084    1.1718 H       1  UNL1        0.0257
     18 H           3.7201    6.3730    0.6885 H       1  UNL1        0.0257
     19 H           5.7898    2.6430    0.9804 H       1  UNL1        0.0257
     20 H           6.5547    4.1664    1.4928 H       1  UNL1        0.0257
     21 H           5.2638    3.4421    2.4813 H       1  UNL1        0.0257
     22 H           2.5002    4.1900    0.1314 H       1  UNL1        0.0324
     23 H           2.8650    3.7460    1.8160 H       1  UNL1        0.0324
     24 H           3.4553    2.8273   -1.6999 H       1  UNL1        0.0261
     25 H           5.0369    2.4600   -0.9704 H       1  UNL1        0.0261
     26 H           3.9264    1.1371   -1.4005 H       1  UNL1        0.0261
     27 H           0.9791    3.3836   -0.1573 H       1  UNL1        0.0622
     28 H          -1.2387    2.3153   -0.2028 H       1  UNL1        0.0632
     29 H           0.5460   -1.4287    0.7992 H       1  UNL1        0.0632
     30 H           2.7636   -0.3596    0.8399 H       1  UNL1        0.0622
     31 H           3.8681    1.5565    2.2101 H       1  UNL1        0.2106
     32 H           4.3455    4.9542   -1.2563 H       1  UNL1        0.2101
@<TRIPOS>BOND
     1     1     2    1
     2     1    16    1
     3     1    17    1
     4     1    18    1
     5     2     3    1
     6     2     4    1
     7     2    15    1
     8     3    19    1
     9     3    20    1
    10     3    21    1
    11     4     5    1
    12     4    22    1
    13     4    23    1
    14     5     6    1
    15     5     7    1
    16     5    14    1
    17     6    24    1
    18     6    25    1
    19     6    26    1
    20     7    12   ar
    21     7     8   ar
    22     8     9   ar
    23     8    27    1
    24     9    10   ar
    25     9    28    1
    26    10    11   ar
    27    10    13    1
    28    11    12   ar
    29    11    29    1
    30    12    30    1
    31    14    31    1
    32    15    32    1
