@<TRIPOS>MOLECULE
ZINC00967515
 31 31 0 0 0
SMALL
GASTEIGER

@<TRIPOS>ATOM
      1 C           5.7496    1.6743   -0.0438 C.3     1  UNL1       -0.0623
      2 C           4.3142    1.1447   -0.0330 C.3     1  UNL1       -0.0415
      3 H           4.3290    0.0548   -0.0390 H       1  UNL1        0.0299
      4 C           3.5981    1.6381    1.2258 C.3     1  UNL1       -0.0500
      5 C           2.1627    1.1086    1.2367 C.3     1  UNL1       -0.0474
      6 C           1.4227    1.6154   -0.0028 C.3     1  UNL1       -0.0126
      7 H           1.4079    2.7053    0.0031 H       1  UNL1        0.0328
      8 C           2.1388    1.1220   -1.2617 C.3     1  UNL1        0.0585
      9 H           1.6116    1.4831   -2.1447 H       1  UNL1        0.0596
     10 C           3.5742    1.6516   -1.2725 C.3     1  UNL1       -0.0240
     11 O           2.1582   -0.3069   -1.2695 O.3     1  UNL1       -0.3915
     12 C          -0.0127    1.0858    0.0080 C.3     1  UNL1       -0.0415
     13 C          -0.7527    1.5927   -1.2315 C.3     1  UNL1       -0.0623
     14 C          -0.7288    1.5792    1.2668 C.3     1  UNL1       -0.0623
     15 H           5.7348    2.7642   -0.0379 H       1  UNL1        0.0232
     16 H           6.2768    1.3132    0.8392 H       1  UNL1        0.0232
     17 H           6.2598    1.3228   -0.9406 H       1  UNL1        0.0232
     18 H           4.1252    1.2771    2.1089 H       1  UNL1        0.0268
     19 H           3.5833    2.7280    1.2318 H       1  UNL1        0.0268
     20 H           1.6525    1.4601    2.1335 H       1  UNL1        0.0269
     21 H           2.1775    0.0187    1.2307 H       1  UNL1        0.0269
     22 H           4.0844    1.3000   -2.1693 H       1  UNL1        0.0293
     23 H           3.5594    2.7414   -1.2665 H       1  UNL1        0.0293
     24 H           2.5979   -0.6900   -2.0409 H       1  UNL1        0.2098
     25 H           0.0021   -0.0041    0.0020 H       1  UNL1        0.0299
     26 H          -0.7675    2.6825   -1.2255 H       1  UNL1        0.0232
     27 H          -0.2425    1.2411   -2.1283 H       1  UNL1        0.0232
     28 H          -1.7753    1.2154   -1.2238 H       1  UNL1        0.0232
     29 H          -0.7436    2.6691    1.2728 H       1  UNL1        0.0232
     30 H          -1.7514    1.2020    1.2746 H       1  UNL1        0.0232
     31 H          -0.2017    1.2182    2.1499 H       1  UNL1        0.0232
@<TRIPOS>BOND
     1     1     2    1
     2     1    15    1
     3     1    16    1
     4     1    17    1
     5     2     3    1
     6     2    10    1
     7     2     4    1
     8     4     5    1
     9     4    18    1
    10     4    19    1
    11     5     6    1
    12     5    20    1
    13     5    21    1
    14     6     7    1
    15     6     8    1
    16     6    12    1
    17     8     9    1
    18     8    10    1
    19     8    11    1
    20    10    22    1
    21    10    23    1
    22    11    24    1
    23    12    13    1
    24    12    14    1
    25    12    25    1
    26    13    26    1
    27    13    27    1
    28    13    28    1
    29    14    29    1
    30    14    30    1
    31    14    31    1
