@<TRIPOS>MOLECULE
ZINC03831092
 70 73 0 0 0
SMALL
GASTEIGER

@<TRIPOS>ATOM
      1 C          -0.0548   -0.1017    2.3798 C.3     1  UNL1       -0.0552
      2 C           0.6120   -0.2429    1.0100 C.3     1  UNL1        0.0421
      3 C           0.0720    0.8106    0.0775 C.2     1  UNL1        0.3078
      4 O          -0.7608    1.5939    0.4683 O.2     1  UNL1       -0.2508
      5 O           0.5161    0.8786   -1.1874 O.3     1  UNL1       -0.4497
      6 C          -0.1266    1.8443   -2.0607 C.3     1  UNL1        0.1796
      7 C          -1.6379    1.5517   -2.1563 C.3     1  UNL1       -0.0048
      8 C          -1.9313    1.2447   -3.6412 C.3     1  UNL1       -0.0453
      9 C          -0.5603    0.7609   -4.2003 C.3     1  UNL1       -0.0281
     10 H          -0.4942    0.8404   -5.2853 H       1  UNL1        0.0310
     11 C           0.4178    1.7107   -3.4887 C.3     1  UNL1        0.0204
     12 C           1.8472    1.2205   -3.5252 C.3     1  UNL1       -0.0168
     13 C           1.9518   -0.2045   -2.9855 C.3     1  UNL1        0.0600
     14 H           1.6047   -0.2308   -1.9526 H       1  UNL1        0.0596
     15 C           1.0772   -1.1225   -3.8497 C.3     1  UNL1        0.0007
     16 H           1.4008   -1.0677   -4.8891 H       1  UNL1        0.0340
     17 C          -0.3756   -0.6666   -3.7372 C.3     1  UNL1       -0.0308
     18 H          -0.6877   -0.7130   -2.6938 H       1  UNL1        0.0308
     19 C          -1.2834   -1.5894   -4.5568 C.3     1  UNL1       -0.0432
     20 C          -1.2118   -3.0257   -4.0312 C.3     1  UNL1       -0.0212
     21 H          -1.7861   -3.6860   -4.6811 H       1  UNL1        0.0343
     22 C           0.2451   -3.4495   -4.0272 C.2     1  UNL1       -0.0531
     23 C           0.5617   -4.5721   -4.6277 C.2     1  UNL1       -0.0146
     24 C           1.9668   -5.0038   -4.6917 C.2     1  UNL1        0.1787
     25 O           2.2715   -6.0538   -5.2261 O.2     1  UNL1       -0.2879
     26 C           2.9959   -4.1365   -4.0939 C.2     1  UNL1       -0.0180
     27 C           2.6415   -3.0188   -3.4797 C.2     1  UNL1       -0.0701
     28 C           1.2314   -2.5577   -3.3346 C.3     1  UNL1        0.0133
     29 C           0.8915   -2.5554   -1.8428 C.3     1  UNL1       -0.0520
     30 C          -1.7719   -3.0848   -2.6086 C.3     1  UNL1       -0.0587
     31 O           3.3111   -0.6414   -3.0458 O.3     1  UNL1       -0.3914
     32 C           0.3416    3.0744   -4.1781 C.3     1  UNL1       -0.0551
     33 C           0.1021    3.2422   -1.5461 C.2     1  UNL1        0.2142
     34 O          -0.7480    4.0869   -1.6948 O.2     1  UNL1       -0.2895
     35 C           1.3915    3.5859   -0.8460 C.3     1  UNL1        0.1542
     36 O           1.3224    4.9470   -0.3450 O.3     1  UNL1       -0.4570
     37 C           2.3989    5.4111    0.3087 C.2     1  UNL1        0.3043
     38 O           3.3670    4.7036    0.4574 O.2     1  UNL1       -0.2512
     39 C           2.4001    6.8148    0.8573 C.3     1  UNL1        0.0332
     40 H           0.3357   -0.8636    3.0543 H       1  UNL1        0.0235
     41 H           0.1570    0.8870    2.7868 H       1  UNL1        0.0235
     42 H          -1.1323   -0.2278    2.2741 H       1  UNL1        0.0235
     43 H           0.4001   -1.2316    0.6030 H       1  UNL1        0.0375
     44 H           1.6895   -0.1167    1.1157 H       1  UNL1        0.0375
     45 H          -1.8915    0.6897   -1.5392 H       1  UNL1        0.0308
     46 H          -2.2085    2.4230   -1.8349 H       1  UNL1        0.0308
     47 H          -2.2599    2.1450   -4.1604 H       1  UNL1        0.0270
     48 H          -2.6802    0.4578   -3.7308 H       1  UNL1        0.0270
     49 H           2.2063    1.2408   -4.5541 H       1  UNL1        0.0297
     50 H           2.4670    1.8792   -2.9169 H       1  UNL1        0.0297
     51 H          -0.9550   -1.5672   -5.5959 H       1  UNL1        0.0274
     52 H          -2.3111   -1.2317   -4.4941 H       1  UNL1        0.0274
     53 H          -0.2063   -5.1777   -5.0857 H       1  UNL1        0.0656
     54 H           4.0383   -4.4121   -4.1563 H       1  UNL1        0.0653
     55 H           3.4220   -2.4028   -3.0580 H       1  UNL1        0.0582
     56 H           0.0029   -1.9473   -1.6735 H       1  UNL1        0.0241
     57 H           0.7015   -3.5765   -1.5119 H       1  UNL1        0.0241
     58 H           1.7280   -2.1410   -1.2802 H       1  UNL1        0.0241
     59 H          -1.4619   -2.1961   -2.0589 H       1  UNL1        0.0235
     60 H          -2.8604   -3.1264   -2.6481 H       1  UNL1        0.0235
     61 H          -1.3924   -3.9741   -2.1054 H       1  UNL1        0.0235
     62 H           3.9224   -0.0970   -2.5310 H       1  UNL1        0.2098
     63 H           0.9823    3.7831   -3.6534 H       1  UNL1        0.0237
     64 H           0.6758    2.9784   -5.2112 H       1  UNL1        0.0237
     65 H          -0.6875    3.4332   -4.1610 H       1  UNL1        0.0237
     66 H           1.5341    2.9564   -0.0822 H       1  UNL1        0.0780
     67 H           2.2206    3.4989   -1.5482 H       1  UNL1        0.0780
     68 H           2.0115    6.8072    1.8756 H       1  UNL1        0.0342
     69 H           3.4187    7.2029    0.8599 H       1  UNL1        0.0342
     70 H           1.7711    7.4494    0.2330 H       1  UNL1        0.0342
@<TRIPOS>BOND
     1     1     2    1
     2     1    40    1
     3     1    41    1
     4     1    42    1
     5     2     3    1
     6     2    43    1
     7     2    44    1
     8     3     4    2
     9     3     5    1
    10     5     6    1
    11     6    11    1
    12     6     7    1
    13     6    33    1
    14     7     8    1
    15     7    45    1
    16     7    46    1
    17     8     9    1
    18     8    47    1
    19     8    48    1
    20     9    10    1
    21     9    17    1
    22     9    11    1
    23    11    12    1
    24    11    32    1
    25    12    13    1
    26    12    49    1
    27    12    50    1
    28    13    14    1
    29    13    15    1
    30    13    31    1
    31    15    16    1
    32    15    28    1
    33    15    17    1
    34    17    18    1
    35    17    19    1
    36    19    20    1
    37    19    51    1
    38    19    52    1
    39    20    21    1
    40    20    22    1
    41    20    30    1
    42    22    28    1
    43    22    23    2
    44    23    24    1
    45    23    53    1
    46    24    25    2
    47    24    26    1
    48    26    27    2
    49    26    54    1
    50    27    28    1
    51    27    55    1
    52    28    29    1
    53    29    56    1
    54    29    57    1
    55    29    58    1
    56    30    59    1
    57    30    60    1
    58    30    61    1
    59    31    62    1
    60    32    63    1
    61    32    64    1
    62    32    65    1
    63    33    34    2
    64    33    35    1
    65    35    36    1
    66    35    66    1
    67    35    67    1
    68    36    37    1
    69    37    38    2
    70    37    39    1
    71    39    68    1
    72    39    69    1
    73    39    70    1
