@<TRIPOS>MOLECULE
ZINC03830735
 54 57 0 0 0
SMALL
GASTEIGER

@<TRIPOS>ATOM
      1 C          -7.3757    2.5452   -1.2833 C.3     1  UNL1       -0.0557
      2 C          -7.3442    4.0737   -1.3402 C.3     1  UNL1        0.0152
      3 H          -8.2015    4.4385   -0.9769 H       1  UNL1        0.0375
      4 C          -6.1547    4.6090   -0.4490 C.3     1  UNL1       -0.0378
      5 C          -4.8491    4.8557   -1.1028 C.3     1  UNL1       -0.0251
      6 C          -4.6833    4.8996   -2.5917 C.3     1  UNL1       -0.0287
      7 H          -4.7301    5.9756   -2.7836 H       1  UNL1        0.0310
      8 C          -3.4571    4.5466   -3.2766 C.3     1  UNL1       -0.0491
      9 C          -2.3835    3.9772   -2.3935 C.3     1  UNL1       -0.0494
     10 C          -3.1207    3.1232   -1.3292 C.3     1  UNL1       -0.0343
     11 H          -3.9210    2.5637   -1.8421 H       1  UNL1        0.0306
     12 C          -3.7762    4.1244   -0.4081 C.3     1  UNL1       -0.0322
     13 H          -3.0317    4.8932   -0.1851 H       1  UNL1        0.0309
     14 C          -4.1058    3.4465    0.8470 C.3     1  UNL1       -0.0489
     15 C          -2.8452    2.9471    1.7360 C.3     1  UNL1       -0.0447
     16 C          -1.7093    2.7563    0.7908 C.3     1  UNL1       -0.0030
     17 C          -2.2327    2.1292   -0.6067 C.3     1  UNL1       -0.0301
     18 H          -2.8240    1.2204   -0.3937 H       1  UNL1        0.0310
     19 C          -0.8886    1.6646   -1.2543 C.3     1  UNL1       -0.0470
     20 C          -0.0331    1.0915   -0.0480 C.3     1  UNL1       -0.0261
     21 C          -0.8030    1.6162    1.2263 C.3     1  UNL1        0.0609
     22 H          -0.0978    1.9891    1.9612 H       1  UNL1        0.0599
     23 O          -1.5839    0.5599    1.7743 O.3     1  UNL1       -0.3912
     24 C          -0.8539    4.0184    0.6294 C.3     1  UNL1       -0.0569
     25 C          -5.8592    4.4306   -3.4175 C.3     1  UNL1        0.0094
     26 C          -7.2112    4.5013   -2.7032 C.2     1  UNL1        0.1365
     27 O          -8.1771    4.9215   -3.2967 O.2     1  UNL1       -0.2971
     28 C          -4.5455    6.3077   -0.6952 C.3     1  UNL1       -0.0590
     29 H          -6.4502    2.1470   -1.6994 H       1  UNL1        0.0236
     30 H          -7.4768    2.2222   -0.2472 H       1  UNL1        0.0236
     31 H          -8.2224    2.1774   -1.8628 H       1  UNL1        0.0236
     32 H          -6.0370    3.9052    0.3751 H       1  UNL1        0.0277
     33 H          -6.4864    5.5561    0.0030 H       1  UNL1        0.0277
     34 H          -3.6900    3.8108   -4.0487 H       1  UNL1        0.0268
     35 H          -3.0615    5.4374   -3.7676 H       1  UNL1        0.0268
     36 H          -1.7105    3.3566   -2.9816 H       1  UNL1        0.0268
     37 H          -1.8292    4.7844   -1.9181 H       1  UNL1        0.0268
     38 H          -4.7409    2.5820    0.6318 H       1  UNL1        0.0268
     39 H          -4.6913    4.1358    1.4737 H       1  UNL1        0.0268
     40 H          -3.0976    2.0205    2.2630 H       1  UNL1        0.0271
     41 H          -2.5919    3.7105    2.4881 H       1  UNL1        0.0271
     42 H          -0.3794    2.5079   -1.7179 H       1  UNL1        0.0269
     43 H          -1.0781    0.8840   -1.9897 H       1  UNL1        0.0269
     44 H          -0.0213    0.0027   -0.0689 H       1  UNL1        0.0290
     45 H           0.9811    1.4882   -0.0704 H       1  UNL1        0.0290
     46 H          -1.0648   -0.2008    2.0694 H       1  UNL1        0.2098
     47 H          -1.3960    4.7508    0.0313 H       1  UNL1        0.0236
     48 H          -0.6384    4.4393    1.6116 H       1  UNL1        0.0236
     49 H           0.0810    3.7624    0.1308 H       1  UNL1        0.0236
     50 H          -5.9414    5.0012   -4.2346 H       1  UNL1        0.0344
     51 H          -5.6790    3.3954   -3.7090 H       1  UNL1        0.0344
     52 H          -3.5471    6.5799   -1.0374 H       1  UNL1        0.0235
     53 H          -5.2793    6.9736   -1.1492 H       1  UNL1        0.0235
     54 H          -4.5949    6.3983    0.3899 H       1  UNL1        0.0235
@<TRIPOS>BOND
     1     1     2    1
     2     1    29    1
     3     1    30    1
     4     1    31    1
     5     2     3    1
     6     2    26    1
     7     2     4    1
     8     4     5    1
     9     4    32    1
    10     4    33    1
    11     5    12    1
    12     5     6    1
    13     5    28    1
    14     6     7    1
    15     6     8    1
    16     6    25    1
    17     8     9    1
    18     8    34    1
    19     8    35    1
    20     9    10    1
    21     9    36    1
    22     9    37    1
    23    10    11    1
    24    10    17    1
    25    10    12    1
    26    12    13    1
    27    12    14    1
    28    14    15    1
    29    14    38    1
    30    14    39    1
    31    15    16    1
    32    15    40    1
    33    15    41    1
    34    16    21    1
    35    16    17    1
    36    16    24    1
    37    17    18    1
    38    17    19    1
    39    19    20    1
    40    19    42    1
    41    19    43    1
    42    20    21    1
    43    20    44    1
    44    20    45    1
    45    21    22    1
    46    21    23    1
    47    23    46    1
    48    24    47    1
    49    24    48    1
    50    24    49    1
    51    25    26    1
    52    25    50    1
    53    25    51    1
    54    26    27    2
    55    28    52    1
    56    28    53    1
    57    28    54    1
