@<TRIPOS>MOLECULE
ZINC03812992
 32 34 0 0 0
SMALL
GASTEIGER

@<TRIPOS>ATOM
      1 C          -1.2377   -4.3189    2.4227 C.ar    1  UNL1       -0.0617
      2 C          -0.3983   -3.2660    2.7401 C.ar    1  UNL1       -0.0611
      3 C          -0.3881   -2.1285    1.9591 C.ar    1  UNL1       -0.0526
      4 C          -1.2263   -2.0417    0.8478 C.ar    1  UNL1        0.0006
      5 C          -2.0744   -3.1041    0.5363 C.ar    1  UNL1       -0.0526
      6 C          -2.0714   -4.2387    1.3216 C.ar    1  UNL1       -0.0611
      7 C          -1.2201   -0.8232    0.0051 C.2     1  UNL1        0.0752
      8 N          -2.2737   -0.5750   -0.6894 N.2     1  UNL1       -0.2734
      9 C          -2.3726    0.6051   -1.5473 C.3     1  UNL1        0.1167
     10 C          -2.3068    1.8386   -0.6886 C.2     1  UNL1        0.2386
     11 O          -3.2642    2.5820   -0.6483 O.2     1  UNL1       -0.2734
     12 N          -1.2258    2.1353    0.0306 N.am    1  UNL1       -0.2834
     13 C          -0.0472    1.4056    0.0327 C.ar    1  UNL1        0.0431
     14 C          -0.0093    0.0124    0.0257 C.ar    1  UNL1        0.0281
     15 C           1.2321   -0.6411    0.0374 C.ar    1  UNL1        0.0265
     16 C           2.4025    0.0820    0.0546 C.ar    1  UNL1        0.2739
     17 C           2.3621    1.4662    0.0595 C.ar    1  UNL1        0.0174
     18 C           1.1507    2.1224    0.0484 C.ar    1  UNL1       -0.0334
     19 N           3.7056   -0.6200    0.0682 N.pl3   1  UNL1        0.0796
     20 O           3.7416   -1.8374    0.0642 O.2     1  UNL1        0.0414
     21 O           4.7419    0.0199    0.0833 O.co2   1  UNL1       -0.5760
     22 H          -1.2419   -5.2073    3.0368 H       1  UNL1        0.0618
     23 H           0.2501   -3.3343    3.6012 H       1  UNL1        0.0618
     24 H           0.2679   -1.3074    2.2077 H       1  UNL1        0.0624
     25 H          -2.7291   -3.0406   -0.3203 H       1  UNL1        0.0624
     26 H          -2.7247   -5.0637    1.0790 H       1  UNL1        0.0618
     27 H          -1.5459    0.6103   -2.2577 H       1  UNL1        0.0605
     28 H          -3.3187    0.5849   -2.0883 H       1  UNL1        0.0605
     29 H          -1.2642    2.9241    0.5938 H       1  UNL1        0.1549
     30 H           1.2694   -1.7205    0.0333 H       1  UNL1        0.0692
     31 H           3.2817    2.0323    0.0722 H       1  UNL1        0.0686
     32 H           1.1276    3.2022    0.0522 H       1  UNL1        0.0638
@<TRIPOS>UNITY_ATOM_ATTR
19 1
charge 1
21 1
charge -1
@<TRIPOS>BOND
     1     1     6   ar
     2     1     2   ar
     3     1    22    1
     4     2     3   ar
     5     2    23    1
     6     3     4   ar
     7     3    24    1
     8     4     5   ar
     9     4     7    1
    10     5     6   ar
    11     5    25    1
    12     6    26    1
    13     7    14    1
    14     7     8    2
    15     8     9    1
    16     9    10    1
    17     9    27    1
    18     9    28    1
    19    10    11    2
    20    10    12   am
    21    12    13    1
    22    12    29    1
    23    13    18   ar
    24    13    14   ar
    25    14    15   ar
    26    15    16   ar
    27    15    30    1
    28    16    17   ar
    29    16    19    1
    30    17    18   ar
    31    17    31    1
    32    18    32    1
    33    19    20    2
    34    19    21    1
