@<TRIPOS>MOLECULE
ZINC00056435
 27 28 0 0 0
SMALL
GASTEIGER

@<TRIPOS>ATOM
      1 C          -1.2179    1.7507    0.0173 C.ar    1  UNL1       -0.0399
      2 C          -0.0126    1.0758    0.0080 C.ar    1  UNL1       -0.0185
      3 C           1.1790    1.7861    0.0004 C.ar    1  UNL1        0.1204
      4 C           1.1576    3.1732    0.0081 C.ar    1  UNL1       -0.0002
      5 C          -0.0497    3.8444    0.0233 C.ar    1  UNL1       -0.0364
      6 C          -1.2372    3.1341    0.0303 C.ar    1  UNL1        0.0415
      7 CL         -2.7531    3.9799    0.0488 Cl      1  UNL1       -0.0835
      8 C           2.4506    3.9473    0.0004 C.3     1  UNL1        0.0046
      9 C           2.9321    4.1067   -1.4186 C.ar    1  UNL1       -0.0002
     10 C           3.8510    3.2171   -1.9407 C.ar    1  UNL1       -0.0364
     11 C           4.2899    3.3602   -3.2451 C.ar    1  UNL1        0.0415
     12 C           3.8175    4.4005   -4.0257 C.ar    1  UNL1       -0.0399
     13 C           2.9025    5.2952   -3.5054 C.ar    1  UNL1       -0.0185
     14 C           2.4574    5.1503   -2.1996 C.ar    1  UNL1        0.1204
     15 O           1.5568    6.0294   -1.6861 O.3     1  UNL1       -0.5065
     16 CL          5.4397    2.2371   -3.9011 Cl      1  UNL1       -0.0835
     17 O           2.3659    1.1240   -0.0150 O.3     1  UNL1       -0.5065
     18 H          -2.1458    1.1980    0.0183 H       1  UNL1        0.0633
     19 H           0.0021   -0.0041    0.0020 H       1  UNL1        0.0654
     20 H          -0.0668    4.9243    0.0293 H       1  UNL1        0.0636
     21 H           2.2879    4.9306    0.4416 H       1  UNL1        0.0364
     22 H           3.2000    3.4084    0.5801 H       1  UNL1        0.0364
     23 H           4.2240    2.4069   -1.3317 H       1  UNL1        0.0636
     24 H           4.1646    4.5132   -5.0421 H       1  UNL1        0.0633
     25 H           2.5343    6.1073   -4.1148 H       1  UNL1        0.0654
     26 H           1.9578    6.7963   -1.2548 H       1  UNL1        0.2921
     27 H           2.7007    0.9374   -0.9028 H       1  UNL1        0.2921
@<TRIPOS>BOND
     1     1     6   ar
     2     1     2   ar
     3     1    18    1
     4     2     3   ar
     5     2    19    1
     6     3     4   ar
     7     3    17    1
     8     4     5   ar
     9     4     8    1
    10     5     6   ar
    11     5    20    1
    12     6     7    1
    13     8     9    1
    14     8    21    1
    15     8    22    1
    16     9    14   ar
    17     9    10   ar
    18    10    11   ar
    19    10    23    1
    20    11    12   ar
    21    11    16    1
    22    12    13   ar
    23    12    24    1
    24    13    14   ar
    25    13    25    1
    26    14    15    1
    27    15    26    1
    28    17    27    1
