@<TRIPOS>MOLECULE
ZINC03812930
 42 44 0 0 0
SMALL
GASTEIGER

@<TRIPOS>ATOM
      1 C          -6.2943    4.7392    4.0723 C.ar    1  UNL1       -0.0615
      2 C          -7.0486    5.0997    2.9709 C.ar    1  UNL1       -0.0583
      3 C          -6.5929    4.8173    1.6978 C.ar    1  UNL1       -0.0193
      4 C          -5.3773    4.1709    1.5248 C.ar    1  UNL1        0.1286
      5 C          -4.6252    3.8048    2.6320 C.ar    1  UNL1       -0.0193
      6 C          -5.0826    4.0951    3.9027 C.ar    1  UNL1       -0.0583
      7 O          -4.9268    3.8920    0.2736 O.3     1  UNL1       -0.4522
      8 C          -3.7320    3.2584    0.1528 C.ar    1  UNL1        0.1756
      9 C          -3.6686    1.8667    0.2477 C.ar    1  UNL1        0.0752
     10 C          -2.4525    1.2209    0.1244 C.ar    1  UNL1       -0.0281
     11 C          -1.2892    1.9647   -0.0953 C.ar    1  UNL1        0.0011
     12 C          -1.3601    3.3574   -0.1834 C.ar    1  UNL1       -0.0228
     13 C          -2.5763    3.9951   -0.0653 C.ar    1  UNL1        0.1495
     14 S          -2.6629    5.7510   -0.1842 S.O2    1  UNL1        0.0595
     15 O          -3.4260    6.1962    0.9288 O.2     1  UNL1       -0.1531
     16 O          -1.3402    6.2070   -0.4323 O.2     1  UNL1       -0.1531
     17 N          -3.5480    6.1070   -1.5378 N.3     1  UNL1       -0.2034
     18 C           0.0109    1.2812   -0.2278 C.2     1  UNL1        0.0718
     19 O           0.0718    0.0704   -0.1460 O.co2   1  UNL1       -0.5446
     20 N          -4.8356    1.1260    0.4682 N.pl3   1  UNL1       -0.3270
     21 C          -5.9225    1.5604   -0.4463 C.3     1  UNL1        0.0123
     22 C          -6.8914    0.3514   -0.4449 C.3     1  UNL1       -0.0358
     23 C          -5.9323   -0.8602   -0.3964 C.3     1  UNL1       -0.0358
     24 C          -4.6156   -0.3079    0.1805 C.3     1  UNL1        0.0123
     25 H          -6.6523    4.9609    5.0668 H       1  UNL1        0.0618
     26 H          -7.9946    5.6028    3.1061 H       1  UNL1        0.0619
     27 H          -7.1824    5.0991    0.8379 H       1  UNL1        0.0654
     28 H          -3.6809    3.2976    2.5002 H       1  UNL1        0.0654
     29 H          -4.4955    3.8143    4.7646 H       1  UNL1        0.0619
     30 H          -2.4012    0.1446    0.1978 H       1  UNL1        0.0644
     31 H          -0.4620    3.9341   -0.3486 H       1  UNL1        0.0645
     32 H          -4.0761    6.9199   -1.5720 H       1  UNL1        0.1442
     33 H          -3.5383    5.5026   -2.2964 H       1  UNL1        0.1442
     34 H          -6.4179    2.4509   -0.0594 H       1  UNL1        0.0464
     35 H          -5.5331    1.7402   -1.4484 H       1  UNL1        0.0464
     36 H          -7.4883    0.3344   -1.3567 H       1  UNL1        0.0281
     37 H          -7.5321    0.3716    0.4366 H       1  UNL1        0.0281
     38 H          -5.7699   -1.2546   -1.3994 H       1  UNL1        0.0281
     39 H          -6.3350   -1.6356    0.2553 H       1  UNL1        0.0281
     40 H          -3.8140   -0.4215   -0.5494 H       1  UNL1        0.0464
     41 H          -4.3588   -0.8358    1.0989 H       1  UNL1        0.0464
     42 O           1.1304    1.9990   -0.4450 O.co2   1  UNL1       -0.5446
@<TRIPOS>UNITY_ATOM_ATTR
42 1
charge -1
@<TRIPOS>BOND
     1     1     6   ar
     2     1     2   ar
     3     1    25    1
     4     2     3   ar
     5     2    26    1
     6     3     4   ar
     7     3    27    1
     8     4     5   ar
     9     4     7    1
    10     5     6   ar
    11     5    28    1
    12     6    29    1
    13     7     8    1
    14     8    13   ar
    15     8     9   ar
    16     9    10   ar
    17     9    20    1
    18    10    11   ar
    19    10    30    1
    20    11    12   ar
    21    11    18    1
    22    12    13   ar
    23    12    31    1
    24    13    14    1
    25    14    15    2
    26    14    16    2
    27    14    17    1
    28    17    32    1
    29    17    33    1
    30    18    19   ar
    31    18    42   ar
    32    20    24    1
    33    20    21    1
    34    21    22    1
    35    21    34    1
    36    21    35    1
    37    22    23    1
    38    22    36    1
    39    22    37    1
    40    23    24    1
    41    23    38    1
    42    23    39    1
    43    24    40    1
    44    24    41    1
