@<TRIPOS>MOLECULE
ZINC03831250
 41 44 0 0 0
SMALL
GASTEIGER

@<TRIPOS>ATOM
      1 C          -0.9870    0.2534   -1.8452 C.3     1  UNL1       -0.0334
      2 C          -0.6060    1.4850   -1.0212 C.3     1  UNL1        0.1023
      3 H           0.0717    2.1220   -1.5897 H       1  UNL1        0.0649
      4 C           0.0552    1.0543    0.3044 C.3     1  UNL1       -0.0010
      5 C          -0.0620    2.0482    2.5179 C.3     1  UNL1        0.0499
      6 C          -0.9321    2.2890    3.6977 C.2     1  UNL1        0.2625
      7 O          -0.4783    1.9900    4.7820 O.2     1  UNL1       -0.2696
      8 N          -2.1388    2.7918    3.6822 N.am    1  UNL1       -0.2806
      9 C          -3.0603    3.0889    2.7013 C.ar    1  UNL1        0.0454
     10 C          -4.3333    3.4512    3.1741 C.ar    1  UNL1       -0.0385
     11 C          -5.3413    3.8097    2.3128 C.ar    1  UNL1       -0.0416
     12 C          -5.1049    3.8146    0.9488 C.ar    1  UNL1        0.0416
     13 C          -3.8636    3.4519    0.4758 C.ar    1  UNL1       -0.0299
     14 C          -2.8349    3.0810    1.3423 C.ar    1  UNL1        0.0592
     15 C          -1.5462    2.6969    0.6885 C.3     1  UNL1        0.1515
     16 O          -1.7893    2.2210   -0.6510 O.3     1  UNL1       -0.3180
     17 C          -0.6590    3.9128    0.6143 C.ar    1  UNL1        0.0368
     18 C           0.5785    3.8292    0.0038 C.ar    1  UNL1       -0.0500
     19 C           1.3905    4.9456   -0.0681 C.ar    1  UNL1       -0.0612
     20 C           0.9691    6.1432    0.4789 C.ar    1  UNL1       -0.0617
     21 C          -0.2663    6.2255    1.0936 C.ar    1  UNL1       -0.0612
     22 C          -1.0801    5.1102    1.1617 C.ar    1  UNL1       -0.0500
     23 CL         -6.3629    4.2735   -0.1560 Cl      1  UNL1       -0.0835
     24 H          -1.6882   -0.3598   -1.2791 H       1  UNL1        0.0256
     25 H          -1.4527    0.5704   -2.7783 H       1  UNL1        0.0256
     26 H          -0.0915   -0.3279   -2.0652 H       1  UNL1        0.0256
     27 H           0.0731   -0.0325    0.3856 H       1  UNL1        0.0841
     28 H           1.0656    1.4573    0.3745 H       1  UNL1        0.0841
     29 H           0.4779    2.9658    2.2843 H       1  UNL1        0.0914
     30 H           0.6596    1.2694    2.7646 H       1  UNL1        0.0914
     31 H          -2.4618    3.0070    4.5711 H       1  UNL1        0.1550
     32 H          -4.5228    3.4480    4.2373 H       1  UNL1        0.0637
     33 H          -6.3122    4.0856    2.6972 H       1  UNL1        0.0633
     34 H          -3.6823    3.4548   -0.5888 H       1  UNL1        0.0638
     35 H           0.9094    2.8925   -0.4199 H       1  UNL1        0.0623
     36 H           2.3556    4.8813   -0.5486 H       1  UNL1        0.0618
     37 H           1.6050    7.0145    0.4257 H       1  UNL1        0.0618
     38 H          -0.5955    7.1611    1.5209 H       1  UNL1        0.0618
     39 H          -2.0452    5.1745    1.6422 H       1  UNL1        0.0623
     40 N          -0.8345    1.6056    1.3130 N.4     1  UNL1        0.2746
     41 H          -1.5077    0.8874    1.6048 H       1  UNL1        0.2079
@<TRIPOS>UNITY_ATOM_ATTR
40 1
charge 1
@<TRIPOS>BOND
     1     1     2    1
     2     1    24    1
     3     1    25    1
     4     1    26    1
     5     2     3    1
     6     2    16    1
     7     2     4    1
     8     4    27    1
     9     4    28    1
    10     4    40    1
    11     5     6    1
    12     5    29    1
    13     5    30    1
    14     5    40    1
    15     6     7    2
    16     6     8   am
    17     8     9    1
    18     8    31    1
    19     9    14   ar
    20     9    10   ar
    21    10    11   ar
    22    10    32    1
    23    11    12   ar
    24    11    33    1
    25    12    13   ar
    26    12    23    1
    27    13    14   ar
    28    13    34    1
    29    14    15    1
    30    15    16    1
    31    15    17    1
    32    15    40    1
    33    17    22   ar
    34    17    18   ar
    35    18    19   ar
    36    18    35    1
    37    19    20   ar
    38    19    36    1
    39    20    21   ar
    40    20    37    1
    41    21    22   ar
    42    21    38    1
    43    22    39    1
    44    40    41    1
