@<TRIPOS>MOLECULE
ZINC01530962
 25 24 0 0 0
SMALL
GASTEIGER

@<TRIPOS>ATOM
      1 C          -0.5917    3.1255    1.2128 C.3     1  UNL1       -0.0067
      2 C          -0.5792    1.5960    1.1791 C.3     1  UNL1        0.0087
      3 C           0.1144    1.0639    2.4348 C.3     1  UNL1        0.0881
      4 C           0.2323   -0.4590    2.3458 C.3     1  UNL1        0.2885
      5 F          -1.0466   -1.0233    2.2894 F       1  UNL1       -0.2023
      6 F           0.9459   -0.8049    1.1933 F       1  UNL1       -0.2023
      7 C          -0.6947    1.4348    3.6509 C.2     1  UNL1        0.0982
      8 O          -1.8814    1.6376    3.5482 O.co2   1  UNL1       -0.5438
      9 C          -1.3960    3.6552    0.0239 C.3     1  UNL1       -0.0352
     10 H           0.4309    3.4986    1.1548 H       1  UNL1        0.0319
     11 H          -1.0501    3.4648    2.1417 H       1  UNL1        0.0319
     12 H          -1.6035    1.2249    1.1450 H       1  UNL1        0.0330
     13 H          -0.0400    1.2564    0.2948 H       1  UNL1        0.0330
     14 H           0.7568   -0.8348    3.2243 H       1  UNL1        0.1086
     15 H           1.4047    2.6595    2.6007 H       1  UNL1        0.2005
     16 H           1.9587    1.2693    3.3263 H       1  UNL1        0.2005
     17 H          -0.9376    3.3160   -0.9050 H       1  UNL1        0.0813
     18 H          -2.4185    3.2822    0.0819 H       1  UNL1        0.0813
     19 H          -0.4690    5.4929    0.0686 H       1  UNL1        0.1994
     20 H          -1.9335    5.4983   -0.7195 H       1  UNL1        0.1994
     21 O          -0.0970    1.5399    4.8482 O.co2   1  UNL1       -0.5438
     22 N           1.4655    1.6459    2.5185 N.4     1  UNL1        0.2312
     23 H           1.9881    1.4097    1.6668 H       1  UNL1        0.2005
     24 N          -1.4199    5.1276    0.0783 N.4     1  UNL1        0.2185
     25 H          -1.8846    5.4259    0.9439 H       1  UNL1        0.1994
@<TRIPOS>UNITY_ATOM_ATTR
21 1
charge -1
22 1
charge 1
24 1
charge 1
@<TRIPOS>BOND
     1     1     2    1
     2     1     9    1
     3     1    10    1
     4     1    11    1
     5     2     3    1
     6     2    12    1
     7     2    13    1
     8     3     4    1
     9     3     7    1
    10     3    22    1
    11     4     5    1
    12     4     6    1
    13     4    14    1
    14     7     8   ar
    15     7    21   ar
    16     9    17    1
    17     9    18    1
    18     9    24    1
    19    15    22    1
    20    16    22    1
    21    19    24    1
    22    20    24    1
    23    22    23    1
    24    24    25    1
