@<TRIPOS>MOLECULE
ZINC03830852
 56 59 0 0 0
SMALL
GASTEIGER

@<TRIPOS>ATOM
      1 C           3.8495    0.0474   -0.0886 C.3     1  UNL1       -0.0528
      2 C           2.7040    0.2505    0.9085 C.3     1  UNL1        0.0263
      3 C           2.5853    1.7285    1.2064 C.3     1  UNL1       -0.0339
      4 C           1.8290    2.4749    0.1036 C.3     1  UNL1        0.0107
      5 C           0.4623    1.8361   -0.0217 C.2     1  UNL1        0.1561
      6 O          -0.5530    2.5026   -0.0597 O.2     1  UNL1       -0.2927
      7 C           0.4252    0.3723   -0.1092 C.2     1  UNL1       -0.0194
      8 C           1.4590   -0.3519    0.3120 C.2     1  UNL1       -0.0572
      9 C           1.3746   -1.8649    0.1992 C.3     1  UNL1       -0.0304
     10 C           1.5799   -2.4796    1.5930 C.3     1  UNL1       -0.0432
     11 C           1.8082   -1.3421    2.5766 C.3     1  UNL1       -0.0000
     12 H           0.9409   -0.6479    2.4389 H       1  UNL1        0.0335
     13 C           3.0501   -0.5412    2.1794 C.3     1  UNL1        0.1492
     14 C           3.5323    0.3293    3.3189 C.3     1  UNL1        0.0907
     15 H           2.7474    1.0311    3.6154 H       1  UNL1        0.0625
     16 C           3.9487   -0.4950    4.5481 C.3     1  UNL1       -0.0151
     17 C           3.2120   -1.7982    4.6446 C.3     1  UNL1        0.0093
     18 C           1.8070   -1.7201    4.0212 C.3     1  UNL1       -0.0266
     19 H           1.2049   -0.9593    4.5660 H       1  UNL1        0.0311
     20 C           1.2212   -3.0944    4.3819 C.3     1  UNL1       -0.0462
     21 C           1.7712   -3.3612    5.8089 C.3     1  UNL1       -0.0162
     22 C           2.8690   -2.2952    6.0632 C.3     1  UNL1        0.1315
     23 C           2.3327   -1.1988    6.9398 C.2     1  UNL1        0.1902
     24 O           1.7159   -0.2826    6.4515 O.2     1  UNL1       -0.2919
     25 C           2.5645   -1.2427    8.4282 C.3     1  UNL1        0.1052
     26 O           1.9629   -0.0989    9.0379 O.3     1  UNL1       -0.3874
     27 O           4.0231   -2.8985    6.6501 O.3     1  UNL1       -0.3804
     28 C           4.0450   -2.9234    4.0053 C.3     1  UNL1       -0.0562
     29 O           4.6784    1.0866    2.8944 O.3     1  UNL1       -0.3886
     30 F           4.0741   -1.4286    1.8023 F       1  UNL1       -0.2380
     31 H           3.6046    0.5413   -1.0289 H       1  UNL1        0.0239
     32 H           4.7658    0.4750    0.3185 H       1  UNL1        0.0239
     33 H           3.9931   -1.0187   -0.2648 H       1  UNL1        0.0239
     34 H           2.0547    1.8725    2.1465 H       1  UNL1        0.0279
     35 H           3.5826    2.1633    1.2837 H       1  UNL1        0.0279
     36 H           2.3350    2.4017   -0.7558 H       1  UNL1        0.0345
     37 H           1.7225    3.5235    0.3792 H       1  UNL1        0.0345
     38 H          -0.4470   -0.1213   -0.5106 H       1  UNL1        0.0652
     39 H           0.3910   -2.1445   -0.1771 H       1  UNL1        0.0310
     40 H           2.1444   -2.2285   -0.4752 H       1  UNL1        0.0310
     41 H           0.6921   -3.0439    1.8663 H       1  UNL1        0.0272
     42 H           2.4482   -3.1345    1.5636 H       1  UNL1        0.0272
     43 H           5.0331   -0.7007    4.4723 H       1  UNL1        0.0297
     44 H           3.8192    0.1230    5.4413 H       1  UNL1        0.0297
     45 H           1.5491   -3.8648    3.6866 H       1  UNL1        0.0269
     46 H           0.1286   -3.0497    4.4029 H       1  UNL1        0.0269
     47 H           2.2006   -4.3598    5.8737 H       1  UNL1        0.0297
     48 H           0.9744   -3.2486    6.5461 H       1  UNL1        0.0297
     49 H           2.1565   -2.0744    8.8047 H       1  UNL1        0.0637
     50 H           3.6358   -1.2403    8.6293 H       1  UNL1        0.0637
     51 H           2.0729   -0.0613    9.9979 H       1  UNL1        0.2100
     52 H           3.8791   -3.2344    7.5454 H       1  UNL1        0.2108
     53 H           5.0624   -2.8884    4.3949 H       1  UNL1        0.0236
     54 H           3.5972   -3.8879    4.2447 H       1  UNL1        0.0236
     55 H           4.0655   -2.7907    2.9236 H       1  UNL1        0.0236
     56 H           5.0406    1.6679    3.5771 H       1  UNL1        0.2099
@<TRIPOS>BOND
     1     1     2    1
     2     1    31    1
     3     1    32    1
     4     1    33    1
     5     2     8    1
     6     2    13    1
     7     2     3    1
     8     3     4    1
     9     3    34    1
    10     3    35    1
    11     4     5    1
    12     4    36    1
    13     4    37    1
    14     5     6    2
    15     5     7    1
    16     7     8    2
    17     7    38    1
    18     8     9    1
    19     9    10    1
    20     9    39    1
    21     9    40    1
    22    10    11    1
    23    10    41    1
    24    10    42    1
    25    11    12    1
    26    11    18    1
    27    11    13    1
    28    13    14    1
    29    13    30    1
    30    14    15    1
    31    14    16    1
    32    14    29    1
    33    16    17    1
    34    16    43    1
    35    16    44    1
    36    17    22    1
    37    17    18    1
    38    17    28    1
    39    18    19    1
    40    18    20    1
    41    20    21    1
    42    20    45    1
    43    20    46    1
    44    21    22    1
    45    21    47    1
    46    21    48    1
    47    22    23    1
    48    22    27    1
    49    23    24    2
    50    23    25    1
    51    25    26    1
    52    25    49    1
    53    25    50    1
    54    26    51    1
    55    27    52    1
    56    28    53    1
    57    28    54    1
    58    28    55    1
    59    29    56    1
