@<TRIPOS>MOLECULE
ZINC03831199
 65 68 0 0 0
SMALL
GASTEIGER

@<TRIPOS>ATOM
      1 C          -0.0126    1.0758    0.0080 C.ar    1  UNL1       -0.0428
      2 C           1.1718    1.7910    0.0005 C.ar    1  UNL1       -0.0449
      3 C           1.1024    3.1899    0.0087 C.ar    1  UNL1        0.0770
      4 C          -0.1518    3.8024    0.0240 C.ar    1  UNL1        0.0415
      5 N          -1.2509    3.0774    0.0306 N.ar    1  UNL1       -0.2624
      6 C          -1.2159    1.7585    0.0173 C.ar    1  UNL1        0.0276
      7 C           2.3356    4.0032    0.0018 C.2     1  UNL1        0.3407
      8 O           3.4217    3.4594   -0.0111 O.2     1  UNL1       -0.2449
      9 O           2.2556    5.3479    0.0098 O.3     1  UNL1       -0.4602
     10 C           3.5079    6.0828    0.0023 C.3     1  UNL1        0.1078
     11 C           3.2177    7.5850    0.0131 C.3     1  UNL1        0.1067
     12 C           2.4244    7.9421    1.2716 C.3     1  UNL1        0.1078
     13 O           3.1991    7.5903    2.4482 O.3     1  UNL1       -0.4602
     14 C           2.6388    7.8421    3.6471 C.2     1  UNL1        0.3407
     15 O           1.5333    8.3419    3.7080 O.2     1  UNL1       -0.2449
     16 C           3.3688    7.5105    4.8878 C.ar    1  UNL1        0.0770
     17 C           2.7998    7.7725    6.1406 C.ar    1  UNL1       -0.0449
     18 C           3.5229    7.4382    7.2718 C.ar    1  UNL1       -0.0428
     19 C           4.7766    6.8704    7.1310 C.ar    1  UNL1        0.0276
     20 N           5.2900    6.6399    5.9376 N.ar    1  UNL1       -0.2624
     21 C           4.6396    6.9359    4.8316 C.ar    1  UNL1        0.0415
     22 C           4.5373    8.3593    0.0052 C.3     1  UNL1        0.1078
     23 O           4.2619    9.7849    0.0154 O.3     1  UNL1       -0.4602
     24 C           5.3244   10.6131    0.0102 C.2     1  UNL1        0.3407
     25 O           6.4501   10.1568   -0.0026 O.2     1  UNL1       -0.2449
     26 C           5.1205   12.0761    0.0200 C.ar    1  UNL1        0.0770
     27 C           6.2168   12.9480    0.0205 C.ar    1  UNL1       -0.0449
     28 C           5.9714   14.3096    0.0246 C.ar    1  UNL1       -0.0428
     29 C           4.6641   14.7622    0.0382 C.ar    1  UNL1        0.0276
     30 N           3.6507   13.9174    0.0430 N.ar    1  UNL1       -0.2624
     31 C           3.8323   12.6132    0.0347 C.ar    1  UNL1        0.0415
     32 C           2.4014    7.9557   -1.2267 C.3     1  UNL1        0.1078
     33 O           3.1543    7.6167   -2.4211 O.3     1  UNL1       -0.4602
     34 C           2.5722    7.8815   -3.6067 C.2     1  UNL1        0.3407
     35 O           1.4658    8.3818   -3.6418 O.2     1  UNL1       -0.2449
     36 C           3.2792    7.5634   -4.8641 C.ar    1  UNL1        0.0770
     37 C           2.6826    7.8283   -6.1033 C.ar    1  UNL1       -0.0449
     38 C           3.3892    7.5163   -7.2512 C.ar    1  UNL1       -0.0428
     39 C           4.6460    6.9488   -7.1395 C.ar    1  UNL1        0.0276
     40 N           5.1811    6.7053   -5.9584 N.ar    1  UNL1       -0.2624
     41 C           4.5508    6.9883   -4.8375 C.ar    1  UNL1        0.0415
     42 H           0.0021   -0.0041    0.0020 H       1  UNL1        0.0633
     43 H           2.1251    1.2837   -0.0117 H       1  UNL1        0.0627
     44 H          -0.2212    4.8802    0.0309 H       1  UNL1        0.0838
     45 H          -2.1418    1.2026    0.0183 H       1  UNL1        0.0829
     46 H           4.0894    5.8187    0.8856 H       1  UNL1        0.0706
     47 H           4.0731    5.8283   -0.8943 H       1  UNL1        0.0706
     48 H           2.2177    9.0123    1.2793 H       1  UNL1        0.0706
     49 H           1.4843    7.3904    1.2773 H       1  UNL1        0.0706
     50 H           1.8206    8.2207    6.2215 H       1  UNL1        0.0627
     51 H           3.1144    7.6219    8.2546 H       1  UNL1        0.0633
     52 H           5.3447    6.6120    8.0124 H       1  UNL1        0.0829
     53 H           5.0932    6.7321    3.8729 H       1  UNL1        0.0838
     54 H           5.1188    8.0952    0.8884 H       1  UNL1        0.0706
     55 H           5.1025    8.1049   -0.8914 H       1  UNL1        0.0706
     56 H           7.2274   12.5672    0.0141 H       1  UNL1        0.0627
     57 H           6.7919   15.0119    0.0212 H       1  UNL1        0.0633
     58 H           4.4699   15.8245    0.0453 H       1  UNL1        0.0829
     59 H           2.9772   11.9535    0.0390 H       1  UNL1        0.0838
     60 H           1.4613    7.4040   -1.2210 H       1  UNL1        0.0706
     61 H           2.1947    9.0259   -1.2190 H       1  UNL1        0.0706
     62 H           1.6979    8.2682   -6.1613 H       1  UNL1        0.0627
     63 H           2.9625    7.7101   -8.2242 H       1  UNL1        0.0633
     64 H           5.1980    6.7008   -8.0340 H       1  UNL1        0.0829
     65 H           5.0218    6.7741   -3.8895 H       1  UNL1        0.0838
@<TRIPOS>BOND
     1     1     6   ar
     2     1     2   ar
     3     1    42    1
     4     2     3   ar
     5     2    43    1
     6     3     4   ar
     7     3     7    1
     8     4     5   ar
     9     4    44    1
    10     5     6   ar
    11     6    45    1
    12     7     8    2
    13     7     9    1
    14     9    10    1
    15    10    11    1
    16    10    46    1
    17    10    47    1
    18    11    12    1
    19    11    22    1
    20    11    32    1
    21    12    13    1
    22    12    48    1
    23    12    49    1
    24    13    14    1
    25    14    15    2
    26    14    16    1
    27    16    21   ar
    28    16    17   ar
    29    17    18   ar
    30    17    50    1
    31    18    19   ar
    32    18    51    1
    33    19    20   ar
    34    19    52    1
    35    20    21   ar
    36    21    53    1
    37    22    23    1
    38    22    54    1
    39    22    55    1
    40    23    24    1
    41    24    25    2
    42    24    26    1
    43    26    31   ar
    44    26    27   ar
    45    27    28   ar
    46    27    56    1
    47    28    29   ar
    48    28    57    1
    49    29    30   ar
    50    29    58    1
    51    30    31   ar
    52    31    59    1
    53    32    33    1
    54    32    60    1
    55    32    61    1
    56    33    34    1
    57    34    35    2
    58    34    36    1
    59    36    41   ar
    60    36    37   ar
    61    37    38   ar
    62    37    62    1
    63    38    39   ar
    64    38    63    1
    65    39    40   ar
    66    39    64    1
    67    40    41   ar
    68    41    65    1
