@<TRIPOS>MOLECULE
ZINC03830246
 60 62 0 0 0
SMALL
GASTEIGER

@<TRIPOS>ATOM
      1 C          -2.6474    1.3107    5.9217 C.3     1  UNL1       -0.0245
      2 C          -2.9051    1.0252    4.4409 C.3     1  UNL1       -0.0348
      3 C          -3.6143   -1.2519    4.8586 C.3     1  UNL1       -0.0348
      4 C          -3.0554   -2.6725    4.9616 C.3     1  UNL1       -0.0245
      5 C          -2.6509   -0.6573    2.7182 C.3     1  UNL1       -0.0319
      6 C          -1.3481   -0.1444    2.1015 C.3     1  UNL1       -0.0109
      7 C          -1.2968   -0.5319    0.6223 C.3     1  UNL1       -0.0300
      8 C           0.0060   -0.0190    0.0055 C.3     1  UNL1        0.0180
      9 H           0.8525   -0.3921    0.5821 H       1  UNL1        0.0495
     10 C           0.1155   -0.5124   -1.4386 C.3     1  UNL1       -0.0467
     11 N           0.0111    1.4498    0.0229 N.pl3   1  UNL1       -0.3400
     12 C           1.3005    1.9399    0.0157 C.ar    1  UNL1        0.0546
     13 C           2.2030    1.6280    1.0486 C.ar    1  UNL1        0.0678
     14 C           1.8361    0.8087    2.1293 C.ar    1  UNL1       -0.0451
     15 C           2.7467    0.5379    3.1028 C.ar    1  UNL1       -0.0424
     16 C           4.0408    1.0554    3.0546 C.ar    1  UNL1        0.0472
     17 C           4.4590    1.8441    2.0279 C.ar    1  UNL1        0.0286
     18 C           3.5627    2.1690    0.9906 C.ar    1  UNL1        0.2169
     19 C           3.0886    3.2654   -1.0069 C.ar    1  UNL1        0.2157
     20 C           1.7572    2.7752   -1.0241 C.ar    1  UNL1        0.0712
     21 C           0.8997    3.1277   -2.0818 C.ar    1  UNL1       -0.0047
     22 C           1.3552    3.9372   -3.0810 C.ar    1  UNL1        0.1211
     23 C           2.6678    4.4216   -3.0656 C.ar    1  UNL1       -0.0137
     24 C           3.5212    4.1003   -2.0593 C.ar    1  UNL1        0.0138
     25 O           0.5247    4.2773   -4.1023 O.3     1  UNL1       -0.4951
     26 C           1.0603    5.1277   -5.1183 C.3     1  UNL1        0.0788
     27 CL          5.1530    0.6693    4.3304 Cl      1  UNL1       -0.0833
     28 H          -2.8400    2.3636    6.1276 H       1  UNL1        0.0281
     29 H          -3.3086    0.6945    6.5310 H       1  UNL1        0.0281
     30 H          -1.6100    1.0774    6.1616 H       1  UNL1        0.0281
     31 H          -2.2439    1.6414    3.8316 H       1  UNL1        0.0812
     32 H          -3.9425    1.2584    4.2010 H       1  UNL1        0.0812
     33 H          -3.7951   -0.8592    5.8591 H       1  UNL1        0.0812
     34 H          -4.5504   -1.2694    4.3004 H       1  UNL1        0.0812
     35 H          -2.9607   -3.0990    3.9629 H       1  UNL1        0.0281
     36 H          -2.0759   -2.6439    5.4388 H       1  UNL1        0.0281
     37 H          -3.7316   -3.2867    5.5563 H       1  UNL1        0.0281
     38 H          -3.4966   -0.1455    2.2588 H       1  UNL1        0.0814
     39 H          -2.7375   -1.7299    2.5447 H       1  UNL1        0.0814
     40 H          -0.4999   -0.5881    2.6229 H       1  UNL1        0.0317
     41 H          -1.3045    0.9407    2.1946 H       1  UNL1        0.0317
     42 H          -2.1450   -0.0882    0.1009 H       1  UNL1        0.0285
     43 H          -1.3404   -1.6171    0.5292 H       1  UNL1        0.0285
     44 H           1.0437   -0.1470   -1.8780 H       1  UNL1        0.0247
     45 H           0.1118   -1.6023   -1.4515 H       1  UNL1        0.0247
     46 H          -0.7309   -0.1393   -2.0152 H       1  UNL1        0.0247
     47 H          -0.5216    1.8224   -0.7488 H       1  UNL1        0.1464
     48 H           0.8394    0.3970    2.1864 H       1  UNL1        0.0627
     49 H           2.4609   -0.0921    3.9322 H       1  UNL1        0.0632
     50 H           5.4672    2.2312    2.0159 H       1  UNL1        0.0698
     51 H          -0.1154    2.7594   -2.1027 H       1  UNL1        0.0663
     52 H           3.0076    5.0614   -3.8666 H       1  UNL1        0.0656
     53 H           4.5307    4.4839   -2.0641 H       1  UNL1        0.0685
     54 H           1.9157    4.6404   -5.5862 H       1  UNL1        0.0660
     55 H           0.2957    5.3208   -5.8707 H       1  UNL1        0.0660
     56 H           1.3780    6.0704   -4.6728 H       1  UNL1        0.0660
     57 N          -2.6194   -0.4002    4.1735 N.4     1  UNL1        0.2348
     58 H          -1.6840   -0.6258    4.5318 H       1  UNL1        0.2033
     59 N           4.0043    2.9817   -0.0217 N.ar    1  UNL1       -0.2038
     60 H           4.9604    3.3554   -0.0426 H       1  UNL1        0.4535
@<TRIPOS>UNITY_ATOM_ATTR
57 1
charge 1
59 1
charge 1
@<TRIPOS>BOND
     1     1     2    1
     2     1    28    1
     3     1    29    1
     4     1    30    1
     5     2    31    1
     6     2    32    1
     7     2    57    1
     8     3     4    1
     9     3    33    1
    10     3    34    1
    11     3    57    1
    12     4    35    1
    13     4    36    1
    14     4    37    1
    15     5     6    1
    16     5    38    1
    17     5    39    1
    18     5    57    1
    19     6     7    1
    20     6    40    1
    21     6    41    1
    22     7     8    1
    23     7    42    1
    24     7    43    1
    25     8     9    1
    26     8    10    1
    27     8    11    1
    28    10    44    1
    29    10    45    1
    30    10    46    1
    31    11    12    1
    32    11    47    1
    33    12    20   ar
    34    12    13   ar
    35    13    18   ar
    36    13    14   ar
    37    14    15   ar
    38    14    48    1
    39    15    16   ar
    40    15    49    1
    41    16    17   ar
    42    16    27    1
    43    17    18   ar
    44    17    50    1
    45    18    59   ar
    46    19    24   ar
    47    19    20   ar
    48    19    59   ar
    49    20    21   ar
    50    21    22   ar
    51    21    51    1
    52    22    23   ar
    53    22    25    1
    54    23    24   ar
    55    23    52    1
    56    24    53    1
    57    25    26    1
    58    26    54    1
    59    26    55    1
    60    26    56    1
    61    57    58    1
    62    59    60    1
