@<TRIPOS>MOLECULE
ZINC00001968
 43 46 0 0 0
SMALL
GASTEIGER

@<TRIPOS>ATOM
      1 C          -2.1235   -4.3020    4.0617 C.3     1  UNL1       -0.0431
      2 C          -2.9359   -3.1133    2.1157 C.3     1  UNL1       -0.0284
      3 C          -2.6093   -2.7833    0.6547 C.3     1  UNL1        0.0097
      4 C          -1.3268   -1.9785    0.6258 C.2     1  UNL1       -0.0512
      5 C          -1.2398   -0.8408   -0.0741 C.2     1  UNL1       -0.0101
      6 C          -2.4475   -0.2683   -0.7158 C.ar    1  UNL1       -0.0141
      7 C          -3.1588   -1.0135   -1.6551 C.ar    1  UNL1       -0.0538
      8 C          -4.2924   -0.4758   -2.2320 C.ar    1  UNL1       -0.0612
      9 C          -4.7113    0.7929   -1.8729 C.ar    1  UNL1       -0.0615
     10 C          -3.9999    1.5307   -0.9465 C.ar    1  UNL1       -0.0580
     11 C          -2.8541    1.0032   -0.3674 C.ar    1  UNL1       -0.0393
     12 C          -2.0867    1.8371    0.6105 C.3     1  UNL1       -0.0226
     13 C          -0.7682    2.3207    0.0481 C.3     1  UNL1       -0.0168
     14 C           0.2087    1.2135   -0.1954 C.ar    1  UNL1       -0.0022
     15 C           0.0793   -0.1412   -0.2113 C.ar    1  UNL1       -0.0072
     16 C           1.2616   -0.8853   -0.4130 C.ar    1  UNL1       -0.0467
     17 C           2.4318   -0.2524   -0.6101 C.ar    1  UNL1       -0.0235
     18 S           1.9491    1.4611   -0.5083 S.2     1  UNL1       -0.1010
     19 C          -0.1441   -2.5071    1.4100 C.3     1  UNL1        0.0097
     20 C          -0.6290   -2.8519    2.8274 C.3     1  UNL1       -0.0284
     21 H          -2.9217   -5.0368    3.9567 H       1  UNL1        0.0777
     22 H          -1.2470   -4.7780    4.5014 H       1  UNL1        0.0777
     23 H          -2.4589   -3.4908    4.7078 H       1  UNL1        0.0777
     24 H          -3.1697   -2.1940    2.6526 H       1  UNL1        0.0817
     25 H          -3.7937   -3.7848    2.1538 H       1  UNL1        0.0817
     26 H          -3.4200   -2.1987    0.2199 H       1  UNL1        0.0362
     27 H          -2.4770   -3.7062    0.0901 H       1  UNL1        0.0362
     28 H          -2.8258   -2.0035   -1.9295 H       1  UNL1        0.0624
     29 H          -4.8499   -1.0438   -2.9621 H       1  UNL1        0.0618
     30 H          -5.6017    1.2097   -2.3200 H       1  UNL1        0.0618
     31 H          -4.3359    2.5199   -0.6725 H       1  UNL1        0.0620
     32 H          -2.6904    2.7013    0.8874 H       1  UNL1        0.0317
     33 H          -1.8912    1.2433    1.5034 H       1  UNL1        0.0317
     34 H          -0.3270    3.0293    0.7492 H       1  UNL1        0.0322
     35 H          -0.9568    2.8352   -0.8941 H       1  UNL1        0.0322
     36 H           1.2266   -1.9648   -0.4086 H       1  UNL1        0.0629
     37 H           3.4108   -0.6733   -0.7856 H       1  UNL1        0.0693
     38 H           0.2486   -3.4009    0.9251 H       1  UNL1        0.0362
     39 H           0.6331   -1.7447    1.4616 H       1  UNL1        0.0362
     40 H          -0.9278   -1.9400    3.3442 H       1  UNL1        0.0817
     41 H           0.1776   -3.3349    3.3791 H       1  UNL1        0.0817
     42 N          -1.7686   -3.7900    2.7227 N.4     1  UNL1        0.2335
     43 H          -1.4951   -4.5794    2.1259 H       1  UNL1        0.2031
@<TRIPOS>UNITY_ATOM_ATTR
42 1
charge 1
@<TRIPOS>BOND
     1     1    21    1
     2     1    22    1
     3     1    23    1
     4     1    42    1
     5     2     3    1
     6     2    24    1
     7     2    25    1
     8     2    42    1
     9     3     4    1
    10     3    26    1
    11     3    27    1
    12     4     5    2
    13     4    19    1
    14     5    15    1
    15     5     6    1
    16     6    11   ar
    17     6     7   ar
    18     7     8   ar
    19     7    28    1
    20     8     9   ar
    21     8    29    1
    22     9    10   ar
    23     9    30    1
    24    10    11   ar
    25    10    31    1
    26    11    12    1
    27    12    13    1
    28    12    32    1
    29    12    33    1
    30    13    14    1
    31    13    34    1
    32    13    35    1
    33    14    18   ar
    34    14    15   ar
    35    15    16   ar
    36    16    17   ar
    37    16    36    1
    38    17    18   ar
    39    17    37    1
    40    19    20    1
    41    19    38    1
    42    19    39    1
    43    20    40    1
    44    20    41    1
    45    20    42    1
    46    42    43    1
