@<TRIPOS>MOLECULE
ZINC00895030
 12 11 0 0 0
SMALL
GASTEIGER

@<TRIPOS>ATOM
      1 C          -2.4788    0.9298    0.0189 C.3     1  UNL1       -0.0081
      2 C          -1.3295    1.9397    0.0189 C.3     1  UNL1       -0.0081
      3 C          -0.0143    1.2041    0.0087 C.2     1  UNL1        0.0421
      4 O           0.0021   -0.0041    0.0020 O.co2   1  UNL1       -0.5498
      5 C          -3.7940    1.6655    0.0291 C.2     1  UNL1        0.0421
      6 O          -3.8104    2.8736    0.0357 O.co2   1  UNL1       -0.5498
      7 H          -2.4168    0.3088   -0.8748 H       1  UNL1        0.0328
      8 H          -2.4084    0.2992    0.9051 H       1  UNL1        0.0328
      9 H          -1.3915    2.5607    0.9126 H       1  UNL1        0.0328
     10 H          -1.4000    2.5704   -0.8673 H       1  UNL1        0.0328
     11 O           1.1389    1.8910    0.0013 O.co2   1  UNL1       -0.5498
     12 O          -4.9472    0.9786    0.0308 O.co2   1  UNL1       -0.5498
@<TRIPOS>UNITY_ATOM_ATTR
11 1
charge -1
12 1
charge -1
@<TRIPOS>BOND
     1     1     2    1
     2     1     5    1
     3     1     7    1
     4     1     8    1
     5     2     3    1
     6     2     9    1
     7     2    10    1
     8     3     4   ar
     9     3    11   ar
    10     5     6   ar
    11     5    12   ar
