@<TRIPOS>MOLECULE
ZINC03831516
 57 60 0 0 0
SMALL
GASTEIGER

@<TRIPOS>ATOM
      1 C           4.0881   -0.9605   -1.4618 C.3     1  UNL1       -0.0313
      2 C           3.6019   -0.7898   -0.0212 C.3     1  UNL1        0.0959
      3 C           2.3089   -0.0177   -0.0181 C.ar    1  UNL1       -0.0015
      4 C           1.1020   -0.6824    0.0172 C.ar    1  UNL1       -0.0549
      5 C          -0.0863    0.0297    0.0244 C.ar    1  UNL1       -0.0579
      6 C          -0.0763    1.4106   -0.0034 C.ar    1  UNL1       -0.0194
      7 C           1.1294    2.0960   -0.0396 C.ar    1  UNL1        0.1280
      8 C           2.3309    1.3784   -0.0481 C.ar    1  UNL1        0.0693
      9 C           3.6283    2.0848   -0.0900 C.2     1  UNL1        0.1967
     10 O           3.6913    3.2521   -0.4316 O.2     1  UNL1       -0.2867
     11 C           4.8054    1.3678    0.2796 C.2     1  UNL1        0.0466
     12 C           5.9916    1.9808    0.1679 C.2     1  UNL1        0.1409
     13 C           7.2956    1.3012    0.4403 C.3     1  UNL1        0.1935
     14 C           7.0686    0.0799    1.3408 C.3     1  UNL1        0.0531
     15 H           6.7348    0.4105    2.3243 H       1  UNL1        0.0397
     16 C           5.9872   -0.7919    0.7017 C.3     1  UNL1       -0.0311
     17 C           4.6587   -0.0400    0.7846 C.3     1  UNL1        0.0244
     18 H           4.3422   -0.0052    1.8271 H       1  UNL1        0.0382
     19 C           8.3824   -0.6826    1.4792 C.3     1  UNL1        0.0441
     20 H           8.6641   -1.0953    0.5105 H       1  UNL1        0.0939
     21 C           9.4693    0.2375    1.9630 C.2     1  UNL1        0.1579
     22 C           9.4041    1.6026    1.8223 C.2     1  UNL1        0.1248
     23 C           8.2404    2.2252    1.1762 C.2     1  UNL1        0.2108
     24 O           8.0466    3.4222    1.2307 O.2     1  UNL1       -0.2882
     25 C          10.5034    2.4443    2.3208 C.2     1  UNL1        0.2485
     26 O          10.3660    3.0772    3.3505 O.2     1  UNL1       -0.2702
     27 N          11.6624    2.5140    1.6365 N.am    1  UNL1       -0.3252
     28 O          10.5464   -0.2968    2.5574 O.2     1  UNL1       -0.5050
     29 C           9.3326   -2.7239    2.3696 C.3     1  UNL1       -0.0427
     30 C           8.0413   -1.2628    3.8050 C.3     1  UNL1       -0.0427
     31 O           7.8980    0.8828   -0.7861 O.3     1  UNL1       -0.3731
     32 O           6.0122    3.2626   -0.2485 O.2     1  UNL1       -0.5073
     33 O           1.1436    3.4524   -0.0671 O.3     1  UNL1       -0.5060
     34 O           3.3870   -2.0773    0.5604 O.3     1  UNL1       -0.3836
     35 H           4.2486    0.0202   -1.9097 H       1  UNL1        0.0261
     36 H           5.0240   -1.5192   -1.4656 H       1  UNL1        0.0261
     37 H           3.3381   -1.5040   -2.0364 H       1  UNL1        0.0261
     38 H           1.0827   -1.7620    0.0396 H       1  UNL1        0.0621
     39 H          -1.0276   -0.4990    0.0517 H       1  UNL1        0.0619
     40 H          -1.0078    1.9571   -0.0014 H       1  UNL1        0.0654
     41 H           5.9098   -1.7362    1.2407 H       1  UNL1        0.0278
     42 H           6.2371   -0.9835   -0.3418 H       1  UNL1        0.0278
     43 H          11.7472    2.0677    0.7795 H       1  UNL1        0.1453
     44 H          12.4117    3.0105    2.0011 H       1  UNL1        0.1453
     45 H          11.1770    0.4326    2.8225 H       1  UNL1        0.2919
     46 H          10.2391   -2.2376    2.7299 H       1  UNL1        0.0778
     47 H           9.1158   -3.5937    2.9898 H       1  UNL1        0.0778
     48 H           9.4763   -3.0409    1.3366 H       1  UNL1        0.0778
     49 H           7.1610   -0.6212    3.8447 H       1  UNL1        0.0778
     50 H           7.9151   -2.0960    4.4963 H       1  UNL1        0.0778
     51 H           8.9232   -0.6874    4.0866 H       1  UNL1        0.0778
     52 H           8.0709    1.6048   -1.4057 H       1  UNL1        0.2113
     53 H           6.9577    3.5864   -0.2838 H       1  UNL1        0.2918
     54 H           1.1642    3.8633    0.8080 H       1  UNL1        0.2922
     55 H           2.7317   -2.6148    0.0949 H       1  UNL1        0.2106
     56 N           8.1853   -1.7941    2.4333 N.4     1  UNL1        0.2388
     57 H           7.3296   -2.3024    2.1810 H       1  UNL1        0.2035
@<TRIPOS>UNITY_ATOM_ATTR
56 1
charge 1
@<TRIPOS>BOND
     1     1     2    1
     2     1    35    1
     3     1    36    1
     4     1    37    1
     5     2    17    1
     6     2     3    1
     7     2    34    1
     8     3     8   ar
     9     3     4   ar
    10     4     5   ar
    11     4    38    1
    12     5     6   ar
    13     5    39    1
    14     6     7   ar
    15     6    40    1
    16     7     8   ar
    17     7    33    1
    18     8     9    1
    19     9    10    2
    20     9    11    1
    21    11    17    1
    22    11    12    2
    23    12    13    1
    24    12    32    1
    25    13    23    1
    26    13    14    1
    27    13    31    1
    28    14    15    1
    29    14    16    1
    30    14    19    1
    31    16    17    1
    32    16    41    1
    33    16    42    1
    34    17    18    1
    35    19    20    1
    36    19    21    1
    37    19    56    1
    38    21    22    2
    39    21    28    1
    40    22    23    1
    41    22    25    1
    42    23    24    2
    43    25    26    2
    44    25    27   am
    45    27    43    1
    46    27    44    1
    47    28    45    1
    48    29    46    1
    49    29    47    1
    50    29    48    1
    51    29    56    1
    52    30    49    1
    53    30    50    1
    54    30    51    1
    55    30    56    1
    56    31    52    1
    57    32    53    1
    58    33    54    1
    59    34    55    1
    60    56    57    1
