@<TRIPOS>MOLECULE
ZINC00897007
 36 36 0 0 0
SMALL
GASTEIGER

@<TRIPOS>ATOM
      1 C          -0.3503   -0.5073   -4.8181 C.3     1  UNL1       -0.0219
      2 C           0.6685   -0.4662   -3.6774 C.3     1  UNL1       -0.0283
      3 C           1.7983    0.5006   -4.0373 C.3     1  UNL1       -0.0219
      4 C           0.7182   -0.4975   -1.2568 C.3     1  UNL1       -0.0035
      5 C           0.0021   -0.0041    0.0020 C.3     1  UNL1        0.1285
      6 H          -1.0205   -0.3814    0.0098 H       1  UNL1        0.0681
      7 C           0.7421   -0.5109    1.2415 C.3     1  UNL1        0.1204
      8 O           0.0101   -0.1492    2.4144 O.3     1  UNL1       -0.4892
      9 C           0.5349   -0.5271    3.6106 C.ar    1  UNL1        0.1209
     10 C           1.7263   -1.2360    3.6523 C.ar    1  UNL1       -0.0165
     11 C           2.2616   -1.6160    4.8677 C.ar    1  UNL1       -0.0167
     12 C           1.6028   -1.2971    6.0458 C.ar    1  UNL1        0.1171
     13 C           0.4089   -0.5923    6.0038 C.ar    1  UNL1       -0.0167
     14 C          -0.1241   -0.2085    4.7887 C.ar    1  UNL1       -0.0165
     15 O           2.1275   -1.6749    7.2420 O.3     1  UNL1       -0.5068
     16 O          -0.0173    1.4248    0.0099 O.3     1  UNL1       -0.3831
     17 H          -0.7615    0.4900   -4.9742 H       1  UNL1        0.0284
     18 H           0.1400   -0.8452   -5.7311 H       1  UNL1        0.0284
     19 H          -1.1553   -1.1961   -4.5617 H       1  UNL1        0.0284
     20 H           1.0796   -1.4635   -3.5213 H       1  UNL1        0.0845
     21 H           1.3872    1.4980   -4.1934 H       1  UNL1        0.0284
     22 H           2.5241    0.5299   -3.2246 H       1  UNL1        0.0284
     23 H           2.2886    0.1628   -4.9503 H       1  UNL1        0.0284
     24 H           1.7408   -0.1202   -1.2645 H       1  UNL1        0.0841
     25 H           0.7330   -1.5874   -1.2628 H       1  UNL1        0.0841
     26 H           0.8346   -1.5958    1.1912 H       1  UNL1        0.0725
     27 H           1.7350   -0.0630    1.2804 H       1  UNL1        0.0725
     28 H           2.2372   -1.4879    2.7348 H       1  UNL1        0.0655
     29 H           3.1912   -2.1648    4.9004 H       1  UNL1        0.0655
     30 H          -0.1041   -0.3439    6.9212 H       1  UNL1        0.0655
     31 H          -1.0539    0.3400    4.7560 H       1  UNL1        0.0655
     32 H           1.8319   -2.5447    7.5441 H       1  UNL1        0.2921
     33 H           0.8606    1.8301    0.0037 H       1  UNL1        0.2102
     34 N          -0.0011   -0.0048   -2.4466 N.4     1  UNL1        0.2307
     35 H          -0.9643   -0.3603   -2.4315 H       1  UNL1        0.2017
     36 H          -0.0150    1.0217   -2.4331 H       1  UNL1        0.2017
@<TRIPOS>UNITY_ATOM_ATTR
34 1
charge 1
@<TRIPOS>BOND
     1     1     2    1
     2     1    17    1
     3     1    18    1
     4     1    19    1
     5     2     3    1
     6     2    20    1
     7     2    34    1
     8     3    21    1
     9     3    22    1
    10     3    23    1
    11     4     5    1
    12     4    24    1
    13     4    25    1
    14     4    34    1
    15     5     6    1
    16     5     7    1
    17     5    16    1
    18     7     8    1
    19     7    26    1
    20     7    27    1
    21     8     9    1
    22     9    14   ar
    23     9    10   ar
    24    10    11   ar
    25    10    28    1
    26    11    12   ar
    27    11    29    1
    28    12    13   ar
    29    12    15    1
    30    13    14   ar
    31    13    30    1
    32    14    31    1
    33    15    32    1
    34    16    33    1
    35    34    35    1
    36    34    36    1
