@<TRIPOS>MOLECULE
ZINC00000843
 44 45 0 0 0
SMALL
GASTEIGER

@<TRIPOS>ATOM
      1 C           0.1601    5.3607    0.0424 C.3     1  UNL1        0.0181
      2 N           0.0959    3.8971    0.0304 N.ar    1  UNL1       -0.2796
      3 C          -1.1337    3.2587    0.0395 C.ar    1  UNL1        0.1678
      4 C          -1.1682    1.8700    0.0223 C.ar    1  UNL1        0.1515
      5 C           0.0470    1.1519    0.0069 C.ar    1  UNL1        0.2822
      6 O           0.0428   -0.0660   -0.0037 O.2     1  UNL1       -0.2652
      7 N           1.2131    1.8306   -0.0016 N.ar    1  UNL1       -0.2622
      8 C           1.2318    3.1746    0.0100 C.ar    1  UNL1        0.3331
      9 O           2.3016    3.7525    0.0022 O.2     1  UNL1       -0.2462
     10 C           2.4779    1.0917   -0.0242 C.3     1  UNL1        0.0196
     11 N          -2.5026    1.5164    0.0406 N.ar    1  UNL1       -0.3219
     12 C          -3.2129    2.6611    0.0592 C.ar    1  UNL1        0.0990
     13 N          -2.3989    3.6858    0.0584 N.ar    1  UNL1       -0.2177
     14 C          -3.0436    0.1550    0.0352 C.3     1  UNL1        0.0559
     15 C          -3.0985   -0.3777    1.4684 C.3     1  UNL1        0.1126
     16 H          -3.6665    0.3132    2.0913 H       1  UNL1        0.0665
     17 C          -3.7777   -1.7487    1.4772 C.3     1  UNL1       -0.0037
     18 C          -4.0348   -3.7107    2.8726 C.3     1  UNL1       -0.0429
     19 C          -4.8976   -1.5743    3.6168 C.3     1  UNL1       -0.0083
     20 C          -4.7742   -1.9398    5.0974 C.3     1  UNL1        0.0841
     21 O          -3.5447   -1.4264    5.6139 O.3     1  UNL1       -0.3898
     22 O          -1.7707   -0.5006    1.9821 O.3     1  UNL1       -0.3847
     23 H           1.2026    5.6787    0.0323 H       1  UNL1        0.0458
     24 H          -0.3482    5.7539   -0.8379 H       1  UNL1        0.0458
     25 H          -0.3262    5.7383    0.9418 H       1  UNL1        0.0458
     26 H           2.7787    0.9177   -1.0573 H       1  UNL1        0.0458
     27 H           3.2470    1.6721    0.4853 H       1  UNL1        0.0458
     28 H           2.3490    0.1353    0.4826 H       1  UNL1        0.0458
     29 H          -4.2910    2.7236    0.0729 H       1  UNL1        0.1029
     30 H          -4.0483    0.1650   -0.3875 H       1  UNL1        0.0520
     31 H          -2.4023   -0.4884   -0.5673 H       1  UNL1        0.0520
     32 H          -4.7872   -1.6566    1.0766 H       1  UNL1        0.0840
     33 H          -3.2044   -2.4421    0.8619 H       1  UNL1        0.0840
     34 H          -3.1659   -4.1977    2.4298 H       1  UNL1        0.0778
     35 H          -4.1555   -4.0487    3.9018 H       1  UNL1        0.0778
     36 H          -4.9259   -3.9661    2.2993 H       1  UNL1        0.0778
     37 H          -4.7933   -0.4957    3.4990 H       1  UNL1        0.0837
     38 H          -5.8732   -1.8877    3.2453 H       1  UNL1        0.0837
     39 H          -5.6089   -1.5073    5.6492 H       1  UNL1        0.0610
     40 H          -4.7895   -3.0242    5.2064 H       1  UNL1        0.0610
     41 H          -3.3995   -1.6212    6.5499 H       1  UNL1        0.2096
     42 H          -1.2071   -1.1015    1.4757 H       1  UNL1        0.2101
     43 N          -3.8167   -2.2488    2.8676 N.4     1  UNL1        0.2366
     44 H          -2.9186   -2.0440    3.3210 H       1  UNL1        0.2032
@<TRIPOS>UNITY_ATOM_ATTR
43 1
charge 1
@<TRIPOS>BOND
     1     1     2    1
     2     1    23    1
     3     1    24    1
     4     1    25    1
     5     2     8   ar
     6     2     3   ar
     7     3    13   ar
     8     3     4   ar
     9     4     5   ar
    10     4    11   ar
    11     5     6    2
    12     5     7   ar
    13     7     8   ar
    14     7    10    1
    15     8     9    2
    16    10    26    1
    17    10    27    1
    18    10    28    1
    19    11    12   ar
    20    11    14    1
    21    12    13   ar
    22    12    29    1
    23    14    15    1
    24    14    30    1
    25    14    31    1
    26    15    16    1
    27    15    17    1
    28    15    22    1
    29    17    32    1
    30    17    33    1
    31    17    43    1
    32    18    34    1
    33    18    35    1
    34    18    36    1
    35    18    43    1
    36    19    20    1
    37    19    37    1
    38    19    38    1
    39    19    43    1
    40    20    21    1
    41    20    39    1
    42    20    40    1
    43    21    41    1
    44    22    42    1
    45    43    44    1
