@<TRIPOS>MOLECULE
ZINC03830948
 53 53 0 0 0
SMALL
GASTEIGER

@<TRIPOS>ATOM
      1 C           0.0696    6.9633   -5.0581 C.3     0  UNK0       -0.0303
      2 C          -1.3654    6.4741   -4.8521 C.3     0  UNK0        0.1284
      3 H          -2.0421    7.3285   -4.8383 H       0  UNK0        0.0687
      4 C          -1.4613    5.7362   -3.5416 C.2     0  UNK0        0.2456
      5 O          -1.7173    4.5506   -3.5305 O.2     0  UNK0       -0.2726
      6 N          -1.2625    6.3935   -2.3819 N.am    0  UNK0       -0.2816
      7 C          -1.2494    5.6896   -1.1713 C.ar    0  UNK0        0.0615
      8 C          -2.4326    5.4867   -0.4759 C.ar    0  UNK0        0.0487
      9 C          -2.4233    4.7853    0.7322 C.ar    0  UNK0        0.0654
     10 C          -1.2231    4.2886    1.2388 C.ar    0  UNK0        0.0397
     11 C          -0.0361    4.4941    0.5369 C.ar    0  UNK0        0.0654
     12 C          -0.0524    5.2014   -0.6677 C.ar    0  UNK0        0.0487
     13 I           1.7318    5.5183   -1.7190 I       0  UNK0       -0.0411
     14 C           1.2385    3.9696    1.0697 C.2     0  UNK0        0.2465
     15 O           1.6101    2.8525    0.7667 O.2     0  UNK0       -0.2701
     16 N           1.9891    4.7297    1.8914 N.am    1  SER1       -0.3040
     17 CA          3.2528    4.2097    2.4196 C.3     1  SER1        0.0695
     18 CB          4.1804    5.3767    2.7638 C.3     1  SER1        0.0647
     19 OG          3.6108    6.1397    3.8293 O.3     1  SER1       -0.3931
     20 C           2.9787    3.3871    3.6802 C.3     1  SER1        0.0647
     21 O           2.4641    4.2413    4.7038 O.3     1  SER1       -0.3931
     22 I          -1.2034    3.2356    3.0497 I       0  UNK0       -0.0422
     23 C          -3.6840    4.5706    1.4726 C.2     0  UNK0        0.2465
     24 O          -4.0497    5.3838    2.2989 O.2     0  UNK0       -0.2701
     25 N          -4.4284    3.4731    1.2318 N.am    1  SER1       -0.3040
     26 CA         -5.6782    3.2602    1.9659 C.3     1  SER1        0.0695
     27 CB         -6.8151    4.0059    1.2642 C.3     1  SER1        0.0647
     28 OG         -7.0334    3.4350   -0.0275 O.3     1  SER1       -0.3931
     29 C          -5.9977    1.7645    2.0060 C.3     1  SER1        0.0647
     30 O          -6.2534    1.2963    0.6803 O.3     1  SER1       -0.3931
     31 I          -4.2354    6.2336   -1.2383 I       0  UNK0       -0.0411
     32 O          -1.7275    5.5968   -5.9203 O.3     0  UNK0       -0.3828
     33 H           0.3458    7.6325   -4.2432 H       0  UNK0        0.0259
     34 H           0.7463    6.1089   -5.0718 H       0  UNK0        0.0259
     35 H           0.1390    7.4970   -6.0059 H       0  UNK0        0.0259
     36 H          -1.1286    7.3542   -2.3858 H       0  UNK0        0.1549
     37 H           1.6945    5.6226    2.1300 H       1  SER1        0.1495
     38 HA          3.7274    3.5774    1.6692 H       1  SER1        0.0544
     39 HB1         5.1516    4.9900    3.0726 H       1  SER1        0.0576
     40 HB2         4.3046    6.0128    1.8874 H       1  SER1        0.0576
     41 H           4.1466    6.8976    4.1005 H       1  SER1        0.2095
     42 H1          2.2489    2.6094    3.4551 H       1  SER1        0.0576
     43 H2          3.9057    2.9273    4.0227 H       1  SER1        0.0576
     44 H           2.2671    3.7859    5.5338 H       1  SER1        0.2095
     45 H          -4.1366    2.8243    0.5725 H       1  SER1        0.1495
     46 HA         -5.5706    3.6362    2.9833 H       1  SER1        0.0544
     47 HB1        -7.7256    3.9213    1.8574 H       1  SER1        0.0576
     48 HB2        -6.5481    5.0572    1.1565 H       1  SER1        0.0576
     49 H          -7.7420    3.8594   -0.5304 H       1  SER1        0.2095
     50 H1         -5.1497    1.2230    2.4253 H       1  SER1        0.0576
     51 H2         -6.8781    1.5975    2.6264 H       1  SER1        0.0576
     52 H          -6.4635    0.3538    0.6297 H       1  SER1        0.2095
     53 H          -1.6884    6.0059   -6.7957 H       0  UNK0        0.2104
@<TRIPOS>BOND
     1     1     2    1
     2     1    33    1
     3     1    34    1
     4     1    35    1
     5     2     3    1
     6     2     4    1
     7     2    32    1
     8     4     5    2
     9     4     6   am
    10     6     7    1
    11     6    36    1
    12     7    12   ar
    13     7     8   ar
    14     8     9   ar
    15     8    31    1
    16     9    10   ar
    17     9    23    1
    18    10    11   ar
    19    10    22    1
    20    11    12   ar
    21    11    14    1
    22    12    13    1
    23    14    15    2
    24    14    16   am
    25    16    17    1
    26    16    37    1
    27    17    18    1
    28    17    20    1
    29    17    38    1
    30    18    19    1
    31    18    39    1
    32    18    40    1
    33    19    41    1
    34    20    21    1
    35    20    42    1
    36    20    43    1
    37    21    44    1
    38    23    24    2
    39    23    25   am
    40    25    26    1
    41    25    45    1
    42    26    27    1
    43    26    29    1
    44    26    46    1
    45    27    28    1
    46    27    47    1
    47    27    48    1
    48    28    49    1
    49    29    30    1
    50    29    50    1
    51    29    51    1
    52    30    52    1
    53    32    53    1
