@<TRIPOS>MOLECULE
ZINC03831445
 38 40 0 0 0
SMALL
GASTEIGER

@<TRIPOS>ATOM
      1 C           4.8058    3.3362    0.4518 C.3     1  UNL1       -0.0443
      2 C           2.4975    3.9318    0.0277 C.3     1  UNL1        0.0032
      3 H           2.8630    3.8766   -0.9978 H       1  UNL1        0.0903
      4 C           2.4408    5.3943    0.4641 C.3     1  UNL1       -0.0045
      5 C           1.3228    6.0903   -0.3211 C.3     1  UNL1       -0.0367
      6 C          -0.0191    5.5553    0.1747 C.3     1  UNL1        0.0099
      7 H          -0.1932    5.9080    1.1913 H       1  UNL1        0.0397
      8 C          -0.0256    4.0491    0.1635 C.ar    1  UNL1       -0.0315
      9 C           1.1305    3.3034    0.1023 C.ar    1  UNL1        0.0038
     10 C           1.0555    1.9168    0.1036 C.ar    1  UNL1       -0.0530
     11 C          -0.1675    1.2808    0.1648 C.ar    1  UNL1       -0.0613
     12 C          -1.3283    2.0293    0.2176 C.ar    1  UNL1       -0.0615
     13 C          -1.2556    3.4071    0.2214 C.ar    1  UNL1       -0.0575
     14 C          -1.1186    6.0636   -0.7218 C.ar    1  UNL1       -0.0385
     15 C          -2.1360    6.8384   -0.1961 C.ar    1  UNL1       -0.0565
     16 C          -3.1450    7.3052   -1.0172 C.ar    1  UNL1       -0.0417
     17 C          -3.1373    6.9973   -2.3660 C.ar    1  UNL1        0.0593
     18 C          -2.1186    6.2215   -2.8923 C.ar    1  UNL1        0.0595
     19 C          -1.1064    5.7598   -2.0699 C.ar    1  UNL1       -0.0382
     20 CL         -2.1075    5.8343   -4.5845 Cl      1  UNL1       -0.0820
     21 CL         -4.4047    7.5829   -3.3977 Cl      1  UNL1       -0.0820
     22 H           4.8879    2.9783   -0.5745 H       1  UNL1        0.0777
     23 H           5.1005    4.3847    0.4957 H       1  UNL1        0.0777
     24 H           5.4598    2.7477    1.0953 H       1  UNL1        0.0777
     25 H           2.2295    5.4508    1.5319 H       1  UNL1        0.0324
     26 H           3.3946    5.8778    0.2526 H       1  UNL1        0.0324
     27 H           1.3729    7.1665   -0.1553 H       1  UNL1        0.0276
     28 H           1.4330    5.8766   -1.3842 H       1  UNL1        0.0276
     29 H           1.9618    1.3313    0.0567 H       1  UNL1        0.0622
     30 H          -0.2177    0.2020    0.1669 H       1  UNL1        0.0618
     31 H          -2.2888    1.5373    0.2598 H       1  UNL1        0.0618
     32 H          -2.1629    3.9912    0.2661 H       1  UNL1        0.0621
     33 H          -2.1421    7.0793    0.8567 H       1  UNL1        0.0621
     34 H          -3.9396    7.9101   -0.6059 H       1  UNL1        0.0633
     35 H          -0.3090    5.1583   -2.4807 H       1  UNL1        0.0635
     36 N           3.4134    3.1930    0.9172 N.4     1  UNL1        0.2303
     37 H           3.3347    3.5668    1.8703 H       1  UNL1        0.2017
     38 H           3.1568    2.1988    0.9172 H       1  UNL1        0.2017
@<TRIPOS>UNITY_ATOM_ATTR
36 1
charge 1
@<TRIPOS>BOND
     1     1    22    1
     2     1    23    1
     3     1    24    1
     4     1    36    1
     5     2     3    1
     6     2     9    1
     7     2     4    1
     8     2    36    1
     9     4     5    1
    10     4    25    1
    11     4    26    1
    12     5     6    1
    13     5    27    1
    14     5    28    1
    15     6     7    1
    16     6     8    1
    17     6    14    1
    18     8    13   ar
    19     8     9   ar
    20     9    10   ar
    21    10    11   ar
    22    10    29    1
    23    11    12   ar
    24    11    30    1
    25    12    13   ar
    26    12    31    1
    27    13    32    1
    28    14    19   ar
    29    14    15   ar
    30    15    16   ar
    31    15    33    1
    32    16    17   ar
    33    16    34    1
    34    17    18   ar
    35    17    21    1
    36    18    19   ar
    37    18    20    1
    38    19    35    1
    39    36    37    1
    40    36    38    1
