@<TRIPOS>MOLECULE
ZINC13298439
 52 55 0 0 0
SMALL
GASTEIGER

@<TRIPOS>ATOM
      1 C          10.4782    5.8051    3.9918 C.3     1  UNL1       -0.0653
      2 C           8.9556    5.6549    3.9760 C.3     1  UNL1       -0.0555
      3 C           8.3552    6.6506    2.9817 C.3     1  UNL1       -0.0465
      4 C           6.8326    6.5004    2.9659 C.3     1  UNL1        0.0057
      5 C           6.2333    7.5522    2.0685 C.ar    1  UNL1        0.1119
      6 N           5.9657    8.7826    2.4123 N.ar    1  UNL1       -0.2205
      7 C           5.4359    9.4302    1.3636 C.ar    1  UNL1        0.1527
      8 C           5.3776    8.5693    0.3286 C.ar    1  UNL1        0.0831
      9 N           5.8867    7.3784    0.7752 N.ar    1  UNL1       -0.3239
     10 C           6.0235    6.1449   -0.0032 C.3     1  UNL1        0.0498
     11 C           4.7236    5.3832    0.0299 C.ar    1  UNL1       -0.0277
     12 C           3.7940    5.5627   -0.9787 C.ar    1  UNL1       -0.0563
     13 C           2.6022    4.8676   -0.9539 C.ar    1  UNL1       -0.0537
     14 C           2.3358    3.9830    0.0903 C.ar    1  UNL1       -0.0179
     15 C           3.2741    3.8106    1.1070 C.ar    1  UNL1       -0.0537
     16 C           4.4649    4.5068    1.0685 C.ar    1  UNL1       -0.0563
     17 C           1.0576    3.2335    0.1226 C.ar    1  UNL1       -0.0162
     18 C          -0.1515    3.9038   -0.0415 C.ar    1  UNL1       -0.0540
     19 C          -1.3397    3.2020   -0.0103 C.ar    1  UNL1       -0.0612
     20 C          -1.3387    1.8300    0.1780 C.ar    1  UNL1       -0.0617
     21 C          -0.1504    1.1497    0.3482 C.ar    1  UNL1       -0.0595
     22 C           1.0590    1.8422    0.3195 C.ar    1  UNL1       -0.0240
     23 C           2.3354    1.1172    0.4947 C.ar    1  UNL1        0.0438
     24 N           3.8719   -0.4199    0.8004 N.ar    1  UNL1       -0.2180
     25 N           4.4306    0.7343    0.6695 N.ar    1  UNL1       -0.2180
     26 N           3.5424    1.6440    0.4897 N.ar    1  UNL1       -0.2895
     27 C           4.8530    8.8603   -1.0539 C.3     1  UNL1        0.0872
     28 O           3.4545    8.5707   -1.1034 O.3     1  UNL1       -0.3889
     29 CL          4.9161   11.0865    1.3436 Cl      1  UNL1       -0.0600
     30 H          10.9060    5.0957    4.7002 H       1  UNL1        0.0230
     31 H          10.8732    5.6066    2.9955 H       1  UNL1        0.0230
     32 H          10.7400    6.8200    4.2909 H       1  UNL1        0.0230
     33 H           8.5606    5.8534    4.9724 H       1  UNL1        0.0263
     34 H           8.6938    4.6400    3.6769 H       1  UNL1        0.0263
     35 H           8.7502    6.4521    1.9853 H       1  UNL1        0.0269
     36 H           8.6170    7.6655    3.2808 H       1  UNL1        0.0269
     37 H           6.4451    6.6220    3.9774 H       1  UNL1        0.0343
     38 H           6.5690    5.5109    2.5923 H       1  UNL1        0.0343
     39 H           6.8155    5.5308    0.4253 H       1  UNL1        0.0542
     40 H           6.2735    6.3922   -1.0349 H       1  UNL1        0.0542
     41 H           4.0016    6.2479   -1.7872 H       1  UNL1        0.0621
     42 H           1.8773    5.0083   -1.7421 H       1  UNL1        0.0624
     43 H           3.0711    3.1303    1.9209 H       1  UNL1        0.0624
     44 H           5.1946    4.3705    1.8530 H       1  UNL1        0.0621
     45 H          -0.1598    4.9730   -0.1936 H       1  UNL1        0.0624
     46 H          -2.2756    3.7255   -0.1383 H       1  UNL1        0.0618
     47 H          -2.2738    1.2900    0.1962 H       1  UNL1        0.0618
     48 H          -0.1571    0.0803    0.4991 H       1  UNL1        0.0618
     49 H           5.0148    9.9120   -1.2900 H       1  UNL1        0.0623
     50 H           5.3784    8.2399   -1.7799 H       1  UNL1        0.0623
     51 H           3.0491    8.7352   -1.9657 H       1  UNL1        0.2099
     52 N           2.5050   -0.1969    0.6952 N.ar    1  UNL1       -0.2895
@<TRIPOS>UNITY_ATOM_ATTR
52 1
charge -1
@<TRIPOS>BOND
     1     1     2    1
     2     1    30    1
     3     1    31    1
     4     1    32    1
     5     2     3    1
     6     2    33    1
     7     2    34    1
     8     3     4    1
     9     3    35    1
    10     3    36    1
    11     4     5    1
    12     4    37    1
    13     4    38    1
    14     5     9   ar
    15     5     6   ar
    16     6     7   ar
    17     7     8   ar
    18     7    29    1
    19     8     9   ar
    20     8    27    1
    21     9    10    1
    22    10    11    1
    23    10    39    1
    24    10    40    1
    25    11    16   ar
    26    11    12   ar
    27    12    13   ar
    28    12    41    1
    29    13    14   ar
    30    13    42    1
    31    14    15   ar
    32    14    17    1
    33    15    16   ar
    34    15    43    1
    35    16    44    1
    36    17    22   ar
    37    17    18   ar
    38    18    19   ar
    39    18    45    1
    40    19    20   ar
    41    19    46    1
    42    20    21   ar
    43    20    47    1
    44    21    22   ar
    45    21    48    1
    46    22    23    1
    47    23    26   ar
    48    23    52   ar
    49    24    25   ar
    50    24    52   ar
    51    25    26   ar
    52    27    28    1
    53    27    49    1
    54    27    50    1
    55    28    51    1
