@<TRIPOS>MOLECULE
ZINC00968257
 45 47 0 0 0
SMALL
GASTEIGER

@<TRIPOS>ATOM
      1 C          -5.0469    0.6139   -3.9146 C.3     1  UNL1       -0.0433
      2 C          -3.9552    2.5589   -4.8567 C.3     1  UNL1       -0.0433
      3 C          -4.2709    2.3889   -2.4621 C.3     1  UNL1       -0.0289
      4 C          -3.0651    3.2777   -2.1504 C.3     1  UNL1        0.0065
      5 C          -3.3179    4.0378   -0.8740 C.2     1  UNL1       -0.0707
      6 C          -2.4431    3.9597    0.1357 C.2     1  UNL1       -0.0140
      7 C          -1.2089    3.1343    0.0379 C.ar    1  UNL1       -0.0144
      8 C          -1.2244    1.7478    0.0174 C.ar    1  UNL1       -0.0538
      9 C          -0.0126    1.0758    0.0080 C.ar    1  UNL1       -0.0612
     10 C           1.1786    1.7793    0.0004 C.ar    1  UNL1       -0.0615
     11 C           1.1811    3.1676   -0.0129 C.ar    1  UNL1       -0.0580
     12 C          -0.0228    3.8302   -0.0003 C.ar    1  UNL1       -0.0393
     13 C          -0.1389    5.3294   -0.0777 C.3     1  UNL1       -0.0231
     14 C          -0.3779    5.9606    1.2776 C.3     1  UNL1       -0.0231
     15 C          -1.6886    5.5621    1.9129 C.ar    1  UNL1       -0.0393
     16 C          -2.6561    4.6952    1.4133 C.ar    1  UNL1       -0.0144
     17 C          -3.8409    4.4626    2.1115 C.ar    1  UNL1       -0.0538
     18 C          -4.0651    5.0698    3.3285 C.ar    1  UNL1       -0.0612
     19 C          -3.0999    5.9144    3.8475 C.ar    1  UNL1       -0.0615
     20 C          -1.9376    6.1563    3.1524 C.ar    1  UNL1       -0.0580
     21 H          -6.0296    1.0816   -3.9751 H       1  UNL1        0.0777
     22 H          -4.8406    0.0806   -4.8426 H       1  UNL1        0.0777
     23 H          -5.0292   -0.0878   -3.0806 H       1  UNL1        0.0777
     24 H          -3.1438    3.2713   -4.7076 H       1  UNL1        0.0777
     25 H          -3.7720    1.9844   -5.7647 H       1  UNL1        0.0777
     26 H          -4.8984    3.0971   -4.9513 H       1  UNL1        0.0777
     27 H          -4.4244    1.6848   -1.6443 H       1  UNL1        0.0817
     28 H          -5.1593    3.0096   -2.5787 H       1  UNL1        0.0817
     29 H          -2.9117    3.9817   -2.9683 H       1  UNL1        0.0359
     30 H          -2.1767    2.6570   -2.0338 H       1  UNL1        0.0359
     31 H          -4.2051    4.6455   -0.7741 H       1  UNL1        0.0580
     32 H          -2.1580    1.2049    0.0129 H       1  UNL1        0.0624
     33 H           0.0021   -0.0041    0.0020 H       1  UNL1        0.0618
     34 H           2.1161    1.2432    0.0051 H       1  UNL1        0.0618
     35 H           2.1112    3.7163   -0.0324 H       1  UNL1        0.0620
     36 H           0.7822    5.7335   -0.4978 H       1  UNL1        0.0316
     37 H          -0.9689    5.5856   -0.7362 H       1  UNL1        0.0316
     38 H           0.4342    5.6710    1.9444 H       1  UNL1        0.0316
     39 H          -0.3639    7.0445    1.1640 H       1  UNL1        0.0316
     40 H          -4.5876    3.8024    1.6958 H       1  UNL1        0.0624
     41 H          -4.9821    4.8889    3.8695 H       1  UNL1        0.0618
     42 H          -3.2603    6.3874    4.8050 H       1  UNL1        0.0618
     43 H          -1.1998    6.8221    3.5751 H       1  UNL1        0.0620
     44 N          -3.9991    1.6348   -3.7040 N.4     1  UNL1        0.2311
     45 H          -3.0896    1.1663   -3.6173 H       1  UNL1        0.2028
@<TRIPOS>UNITY_ATOM_ATTR
44 1
charge 1
@<TRIPOS>BOND
     1     1    21    1
     2     1    22    1
     3     1    23    1
     4     1    44    1
     5     2    24    1
     6     2    25    1
     7     2    26    1
     8     2    44    1
     9     3     4    1
    10     3    27    1
    11     3    28    1
    12     3    44    1
    13     4     5    1
    14     4    29    1
    15     4    30    1
    16     5     6    2
    17     5    31    1
    18     6    16    1
    19     6     7    1
    20     7    12   ar
    21     7     8   ar
    22     8     9   ar
    23     8    32    1
    24     9    10   ar
    25     9    33    1
    26    10    11   ar
    27    10    34    1
    28    11    12   ar
    29    11    35    1
    30    12    13    1
    31    13    14    1
    32    13    36    1
    33    13    37    1
    34    14    15    1
    35    14    38    1
    36    14    39    1
    37    15    20   ar
    38    15    16   ar
    39    16    17   ar
    40    17    18   ar
    41    17    40    1
    42    18    19   ar
    43    18    41    1
    44    19    20   ar
    45    19    42    1
    46    20    43    1
    47    44    45    1
