@<TRIPOS>MOLECULE
ZINC00001673
 37 37 0 0 0
SMALL
GASTEIGER

@<TRIPOS>ATOM
      1 C          -1.0424   -0.9574   -2.9747 C.ar    1  UNL1       -0.0566
      2 C          -1.7770   -0.5964   -4.0871 C.ar    1  UNL1       -0.0404
      3 C          -1.5374    0.6217   -4.7103 C.ar    1  UNL1        0.0298
      4 C          -0.5631    1.4753   -4.2085 C.ar    1  UNL1       -0.0404
      5 C           0.1640    1.1105   -3.0924 C.ar    1  UNL1       -0.0566
      6 C          -0.0771   -0.1029   -2.4745 C.ar    1  UNL1       -0.0415
      7 C           0.7182   -0.4975   -1.2568 C.3     1  UNL1        0.0209
      8 CA          0.0021   -0.0041    0.0020 C.3     1  UNL1        0.0200
      9 HA         -1.0205   -0.3814    0.0098 H       1  UNL1        0.0918
     10 C           0.7309   -0.5033    1.2229 C.2     1  UNL1        0.0897
     11 O           1.4853    0.2294    1.8179 O.co2   1  UNL1       -0.5442
     12 N          -2.2748    0.9877   -5.8386 N.pl3   1  UNL1       -0.3276
     13 C          -3.3020    0.0862   -6.3664 C.3     1  UNL1        0.0257
     14 C          -4.6448    0.3990   -5.7031 C.3     1  UNL1        0.0383
     15 CL         -5.9089   -0.7104   -6.3526 Cl      1  UNL1       -0.1238
     16 C          -2.0211    2.2730   -6.4943 C.3     1  UNL1        0.0257
     17 C          -0.9476    2.0938   -7.5697 C.3     1  UNL1        0.0383
     18 CL         -0.6354    3.6756   -8.3767 Cl      1  UNL1       -0.1238
     19 H          -1.2249   -1.9064   -2.4925 H       1  UNL1        0.0621
     20 H          -2.5337   -1.2623   -4.4747 H       1  UNL1        0.0636
     21 H          -0.3745    2.4232   -4.6905 H       1  UNL1        0.0636
     22 H           0.9214    1.7738   -2.7016 H       1  UNL1        0.0621
     23 H           1.7103   -0.0491   -1.3098 H       1  UNL1        0.0372
     24 H           0.8116   -1.5829   -1.2198 H       1  UNL1        0.0372
     25 H1          0.9191    1.8392    0.0032 H       1  UNL1        0.2001
     26 H2         -0.5563    1.8234   -0.7642 H       1  UNL1        0.2001
     27 H          -3.3881    0.2249   -7.4441 H       1  UNL1        0.0475
     28 H          -3.0235   -0.9459   -6.1540 H       1  UNL1        0.0475
     29 H          -4.5586    0.2604   -4.6254 H       1  UNL1        0.0445
     30 H          -4.9232    1.4312   -5.9155 H       1  UNL1        0.0445
     31 H          -2.9407    2.6334   -6.9554 H       1  UNL1        0.0475
     32 H          -1.6776    2.9965   -5.7550 H       1  UNL1        0.0475
     33 H          -0.0281    1.7334   -7.1086 H       1  UNL1        0.0445
     34 H          -1.2912    1.3703   -8.3090 H       1  UNL1        0.0445
     35 OXT         0.5421   -1.7619    1.6494 O.co2   1  UNL1       -0.5442
     36 N          -0.0294    1.4689    0.0323 N.4     1  UNL1        0.2251
     37 H3         -0.4837    1.7790    0.8993 H       1  UNL1        0.2001
@<TRIPOS>UNITY_ATOM_ATTR
35 1
charge -1
36 1
charge 1
@<TRIPOS>BOND
     1     1     6   ar
     2     1     2   ar
     3     1    19    1
     4     2     3   ar
     5     2    20    1
     6     3     4   ar
     7     3    12    1
     8     4     5   ar
     9     4    21    1
    10     5     6   ar
    11     5    22    1
    12     6     7    1
    13     7     8    1
    14     7    23    1
    15     7    24    1
    16     8     9    1
    17     8    10    1
    18     8    36    1
    19    10    11   ar
    20    10    35   ar
    21    12    13    1
    22    12    16    1
    23    13    14    1
    24    13    27    1
    25    13    28    1
    26    14    15    1
    27    14    29    1
    28    14    30    1
    29    16    17    1
    30    16    31    1
    31    16    32    1
    32    17    18    1
    33    17    33    1
    34    17    34    1
    35    25    36    1
    36    26    36    1
    37    36    37    1
