@<TRIPOS>MOLECULE
ZINC00897229
 31 32 0 0 0
SMALL
GASTEIGER

@<TRIPOS>ATOM
      1 C          -0.9696    5.4797    1.0858 C.3     1  UNL1        0.0110
      2 N          -0.4989    4.3713    0.2516 N.3     1  UNL1       -0.1583
      3 C          -1.4316    3.4250   -0.3931 C.3     1  UNL1        0.1074
      4 H          -2.4558    3.6758   -0.1171 H       1  UNL1        0.0696
      5 N          -1.1152    2.0730    0.0613 N.pl3   1  UNL1       -0.3248
      6 C           0.1707    1.5398    0.0369 C.ar    1  UNL1        0.0565
      7 C           0.3241    0.1544    0.0435 C.ar    1  UNL1       -0.0186
      8 C           1.5860   -0.4045    0.0550 C.ar    1  UNL1        0.0691
      9 C           2.7078    0.4065    0.0599 C.ar    1  UNL1        0.1252
     10 C           2.5628    1.7818    0.0464 C.ar    1  UNL1       -0.0057
     11 C           1.3030    2.3432    0.0277 C.ar    1  UNL1        0.1282
     12 S           1.1234    4.1007   -0.0276 S.O2    1  UNL1        0.0641
     13 O           1.8298    4.6254    1.0882 O.2     1  UNL1       -0.1527
     14 O           1.3873    4.5032   -1.3646 O.2     1  UNL1       -0.1527
     15 S           4.3166   -0.3116    0.0840 S.O2    1  UNL1        0.0574
     16 O           4.3335   -1.3045   -0.9325 O.2     1  UNL1       -0.1532
     17 O           5.2422    0.7663    0.1115 O.2     1  UNL1       -0.1532
     18 N           4.4755   -1.1087    1.5268 N.3     1  UNL1       -0.2035
     19 CL          1.7671   -2.1310    0.0627 Cl      1  UNL1       -0.0815
     20 C          -1.2753    3.5054   -1.9130 C.3     1  UNL1        0.0559
     21 CL         -2.5253    2.4724   -2.7012 Cl      1  UNL1       -0.1221
     22 H          -0.1140    6.0446    1.4561 H       1  UNL1        0.0409
     23 H          -1.6084    6.1346    0.4933 H       1  UNL1        0.0409
     24 H          -1.5365    5.0847    1.9288 H       1  UNL1        0.0409
     25 H          -1.8374    1.5190    0.3968 H       1  UNL1        0.1477
     26 H          -0.5473   -0.4837    0.0400 H       1  UNL1        0.0652
     27 H           3.4365    2.4166    0.0501 H       1  UNL1        0.0658
     28 H           3.7440   -1.1089    2.1639 H       1  UNL1        0.1442
     29 H           5.3000   -1.5754    1.7349 H       1  UNL1        0.1442
     30 H          -1.4007    4.5385   -2.2370 H       1  UNL1        0.0462
     31 H          -0.2829    3.1540   -2.1953 H       1  UNL1        0.0462
@<TRIPOS>BOND
     1     1     2    1
     2     1    22    1
     3     1    23    1
     4     1    24    1
     5     2    12    1
     6     2     3    1
     7     3     4    1
     8     3     5    1
     9     3    20    1
    10     5     6    1
    11     5    25    1
    12     6    11   ar
    13     6     7   ar
    14     7     8   ar
    15     7    26    1
    16     8     9   ar
    17     8    19    1
    18     9    10   ar
    19     9    15    1
    20    10    11   ar
    21    10    27    1
    22    11    12    1
    23    12    13    2
    24    12    14    2
    25    15    16    2
    26    15    17    2
    27    15    18    1
    28    18    28    1
    29    18    29    1
    30    20    21    1
    31    20    30    1
    32    20    31    1
