@<TRIPOS>MOLECULE
ZINC03830686
 24 23 0 0 0
SMALL
GASTEIGER

@<TRIPOS>ATOM
      1 C           1.3102    1.5483    2.4965 C.3     1  UNL1        0.0319
      2 C           2.0636    1.1140    1.2377 C.3     1  UNL1        0.0931
      3 H           2.1644    0.0287    1.2309 H       1  UNL1        0.0628
      4 C           1.2864    1.5618   -0.0018 C.3     1  UNL1        0.1100
      5 H           1.1856    2.6471    0.0050 H       1  UNL1        0.0646
      6 C           2.0397    1.1274   -1.2607 C.3     1  UNL1        0.1100
      7 H           2.1405    0.0421   -1.2675 H       1  UNL1        0.0646
      8 C           1.2625    1.5752   -2.5002 C.3     1  UNL1        0.0931
      9 H           1.1617    2.6605   -2.4934 H       1  UNL1        0.0628
     10 C           2.0159    1.1408   -3.7590 C.3     1  UNL1        0.0319
     11 BR          1.1029    1.8533   -5.3477 Br      1  UNL1       -0.0890
     12 O          -0.0349    0.9762   -2.4910 O.3     1  UNL1       -0.3883
     13 O           3.3371    1.7263   -1.2698 O.3     1  UNL1       -0.3866
     14 O          -0.0110    0.9628    0.0073 O.3     1  UNL1       -0.3866
     15 O           3.3610    1.7129    1.2285 O.3     1  UNL1       -0.3883
     16 BR          2.2232    0.8359    4.0852 Br      1  UNL1       -0.0890
     17 H           1.2868    2.6369    2.5485 H       1  UNL1        0.0408
     18 H           0.2907    1.1643    2.4605 H       1  UNL1        0.0408
     19 H           3.0353    1.5249   -3.7230 H       1  UNL1        0.0408
     20 H           2.0393    0.0523   -3.8110 H       1  UNL1        0.0408
     21 H          -0.0218    0.0093   -2.4963 H       1  UNL1        0.2099
     22 H           3.3240    2.6932   -1.2645 H       1  UNL1        0.2100
     23 H           0.0021   -0.0041    0.0020 H       1  UNL1        0.2100
     24 H           3.3479    2.6798    1.2338 H       1  UNL1        0.2099
@<TRIPOS>BOND
     1     1     2    1
     2     1    16    1
     3     1    17    1
     4     1    18    1
     5     2     3    1
     6     2     4    1
     7     2    15    1
     8     4     5    1
     9     4     6    1
    10     4    14    1
    11     6     7    1
    12     6     8    1
    13     6    13    1
    14     8     9    1
    15     8    10    1
    16     8    12    1
    17    10    11    1
    18    10    19    1
    19    10    20    1
    20    12    21    1
    21    13    22    1
    22    14    23    1
    23    15    24    1
