@<TRIPOS>MOLECULE
ZINC03830318
 31 32 0 0 0
SMALL
GASTEIGER

@<TRIPOS>ATOM
      1 C           1.5291    4.1934   -0.6186 C.3     1  UNL1        0.0143
      2 C           0.5363    3.0505   -0.8155 C.3     1  UNL1        0.0529
      3 H           0.4867    2.7832   -1.8710 H       1  UNL1        0.0525
      4 C           1.1142    1.8536    0.0014 C.3     1  UNL1        0.0555
      5 H           1.2356    2.2206    1.0205 H       1  UNL1        0.0528
      6 C           2.4926    1.5522   -0.5304 C.3     1  UNL1        0.0255
      7 H           2.4421    0.9420   -1.4322 H       1  UNL1        0.0431
      8 S           3.1022    3.2523   -0.9103 S.3     1  UNL1       -0.1536
      9 C           3.3633    0.8857    0.5367 C.3     1  UNL1       -0.0394
     10 C           4.7059    0.4850   -0.0779 C.3     1  UNL1       -0.0517
     11 C           5.5766   -0.1815    0.9892 C.3     1  UNL1       -0.0479
     12 C           6.9192   -0.5822    0.3746 C.3     1  UNL1       -0.0132
     13 C           7.7768   -1.2386    1.4256 C.2     1  UNL1        0.0417
     14 O           7.3572   -1.3723    2.5508 O.co2   1  UNL1       -0.5498
     15 N          -0.0111    0.9658    0.0074 N.am    1  UNL1       -0.2937
     16 C          -1.1080    1.7839    0.0162 C.2     1  UNL1        0.3002
     17 O          -2.2357    1.3961    0.2533 O.2     1  UNL1       -0.2528
     18 N          -0.8004    3.0839   -0.2674 N.am    1  UNL1       -0.2940
     19 H           1.3885    4.9782   -1.3619 H       1  UNL1        0.0395
     20 H           1.4837    4.5930    0.3945 H       1  UNL1        0.0395
     21 H           3.5327    1.5845    1.3558 H       1  UNL1        0.0276
     22 H           2.8576   -0.0025    0.9156 H       1  UNL1        0.0276
     23 H           4.5364   -0.2139   -0.8970 H       1  UNL1        0.0266
     24 H           5.2116    1.3731   -0.4568 H       1  UNL1        0.0266
     25 H           5.7461    0.5174    1.8083 H       1  UNL1        0.0269
     26 H           5.0709   -1.0696    1.3681 H       1  UNL1        0.0269
     27 H           6.7497   -1.2810   -0.4445 H       1  UNL1        0.0325
     28 H           7.4249    0.3060   -0.0043 H       1  UNL1        0.0325
     29 H           0.0021   -0.0041    0.0020 H       1  UNL1        0.1506
     30 H          -1.3611    3.8641   -0.1334 H       1  UNL1        0.1506
     31 O           9.0068   -1.6749    1.1118 O.co2   1  UNL1       -0.5498
@<TRIPOS>UNITY_ATOM_ATTR
31 1
charge -1
@<TRIPOS>BOND
     1     1     8    1
     2     1     2    1
     3     1    19    1
     4     1    20    1
     5     2     3    1
     6     2    18    1
     7     2     4    1
     8     4     5    1
     9     4     6    1
    10     4    15    1
    11     6     7    1
    12     6     8    1
    13     6     9    1
    14     9    10    1
    15     9    21    1
    16     9    22    1
    17    10    11    1
    18    10    23    1
    19    10    24    1
    20    11    12    1
    21    11    25    1
    22    11    26    1
    23    12    13    1
    24    12    27    1
    25    12    28    1
    26    13    14   ar
    27    13    31   ar
    28    15    16   am
    29    15    29    1
    30    16    17    2
    31    16    18   am
    32    18    30    1
