@<TRIPOS>MOLECULE
ZINC11592756
 32 32 0 0 0
SMALL
GASTEIGER

@<TRIPOS>ATOM
      1 C           1.3688    1.6297    2.6046 C.3     1  UNL1       -0.0022
      2 C           2.1670    1.1363    1.3940 C.3     1  UNL1        0.1231
      3 H           2.3152    0.0589    1.4684 H       1  UNL1        0.0674
      4 C           1.3910    1.4583    0.1138 C.3     1  UNL1        0.1171
      5 H           1.9742    1.1482   -0.7533 H       1  UNL1        0.0649
      6 C           1.1350    2.9664    0.0457 C.3     1  UNL1        0.1281
      7 H           2.0869    3.4953   -0.0012 H       1  UNL1        0.0678
      8 C           0.3675    3.4055    1.2947 C.3     1  UNL1        0.0319
      9 H          -0.5901    2.8864    1.3337 H       1  UNL1        0.0901
     10 C           0.5092    3.6084    3.7028 C.3     1  UNL1       -0.0076
     11 C           1.4589    3.4553    4.8926 C.3     1  UNL1        0.0841
     12 O           2.6141    4.2713    4.6882 O.3     1  UNL1       -0.3898
     13 C           0.1269    4.9155    1.2405 C.3     1  UNL1        0.0894
     14 O           1.3785    5.5930    1.1112 O.3     1  UNL1       -0.3894
     15 O           0.3634    3.2672   -1.1189 O.3     1  UNL1       -0.3835
     16 O           0.1432    0.7621    0.1239 O.3     1  UNL1       -0.3862
     17 O           3.4362    1.7920    1.3603 O.3     1  UNL1       -0.3838
     18 H           1.9247    1.4156    3.5174 H       1  UNL1        0.0841
     19 H           0.4064    1.1190    2.6372 H       1  UNL1        0.0841
     20 H           0.2760    4.6632    3.5575 H       1  UNL1        0.0837
     21 H          -0.4102    3.0567    3.8985 H       1  UNL1        0.0837
     22 H           0.9510    3.7667    5.8054 H       1  UNL1        0.0610
     23 H           1.7623    2.4123    4.9834 H       1  UNL1        0.0610
     24 H           3.2611    4.2238    5.4052 H       1  UNL1        0.2096
     25 H          -0.5046    5.1524    0.3843 H       1  UNL1        0.0614
     26 H          -0.3676    5.2378    2.1569 H       1  UNL1        0.0614
     27 H           1.3021    6.5561    1.0707 H       1  UNL1        0.2097
     28 H           0.7887    3.0124   -1.9491 H       1  UNL1        0.2102
     29 H           0.2299   -0.2000    0.1681 H       1  UNL1        0.2100
     30 H           3.9825    1.6318    2.1419 H       1  UNL1        0.2101
     31 N           1.1775    3.0911    2.4909 N.4     1  UNL1        0.2444
     32 H           2.0958    3.5410    2.3989 H       1  UNL1        0.2040
@<TRIPOS>UNITY_ATOM_ATTR
31 1
charge 1
@<TRIPOS>BOND
     1     1     2    1
     2     1    18    1
     3     1    19    1
     4     1    31    1
     5     2     3    1
     6     2     4    1
     7     2    17    1
     8     4     5    1
     9     4     6    1
    10     4    16    1
    11     6     7    1
    12     6     8    1
    13     6    15    1
    14     8     9    1
    15     8    13    1
    16     8    31    1
    17    10    11    1
    18    10    20    1
    19    10    21    1
    20    10    31    1
    21    11    12    1
    22    11    22    1
    23    11    23    1
    24    12    24    1
    25    13    14    1
    26    13    25    1
    27    13    26    1
    28    14    27    1
    29    15    28    1
    30    16    29    1
    31    17    30    1
    32    31    32    1
