@<TRIPOS>MOLECULE
ZINC03830217
 43 45 0 0 0
SMALL
GASTEIGER

@<TRIPOS>ATOM
      1 C          -2.6126    3.3917    3.2623 C.3     1  UNL1       -0.0486
      2 C          -1.4473    2.8610    2.4250 C.3     1  UNL1        0.0366
      3 CA         -1.9450    2.1746    1.1168 C.3     1  UNL1        0.0807
      4 HA         -2.7916    2.7319    0.7160 H       1  UNL1        0.0576
      5 N          -0.8662    2.1494    0.1265 N.am    1  UNL1       -0.2761
      6 C           0.0002    3.3474    0.1107 C.3     1  UNL1        0.1003
      7 H           0.0303    3.9415   -0.8027 H       1  UNL1        0.0640
      8 S          -0.4734    4.2358    1.6530 S.3     1  UNL1       -0.1275
      9 CA          1.1284    2.3363    0.3220 C.3     1  UNL1        0.1278
     10 HA          1.6062    2.4224    1.2979 H       1  UNL1        0.0622
     11 C           0.1129    1.2229    0.2522 C.2     1  UNL1        0.2401
     12 O           0.1560    0.0114    0.2880 O.2     1  UNL1       -0.2734
     13 N           2.0939    2.3085   -0.7794 N.am    1  UNL1       -0.2968
     14 C           3.3508    1.8729   -0.5629 C.2     1  UNL1        0.2665
     15 O           3.6826    1.5041    0.5438 O.2     1  UNL1       -0.2692
     16 CA          4.3440    1.8443   -1.6959 C.3     1  UNL1        0.0789
     17 HA          3.8477    1.5069   -2.6058 H       1  UNL1        0.1002
     18 C           4.9008    3.2281   -1.9110 C.ar    1  UNL1        0.0091
     19 C           5.9007    3.7068   -1.0853 C.ar    1  UNL1       -0.0528
     20 C           6.4144    4.9745   -1.2853 C.ar    1  UNL1       -0.0613
     21 C           5.9219    5.7668   -2.3054 C.ar    1  UNL1       -0.0617
     22 C           4.9183    5.2900   -3.1278 C.ar    1  UNL1       -0.0613
     23 C           4.4076    4.0207   -2.9305 C.ar    1  UNL1       -0.0528
     24 C          -2.3752    0.7634    1.4245 C.2     1  UNL1        0.0635
     25 O          -1.5470   -0.0791    1.6776 O.co2   1  UNL1       -0.5478
     26 C          -0.5491    1.9314    3.2436 C.3     1  UNL1       -0.0486
     27 H          -3.2691    2.5657    3.5361 H       1  UNL1        0.0244
     28 H          -2.2258    3.8632    4.1658 H       1  UNL1        0.0244
     29 H          -3.1733    4.1243    2.6817 H       1  UNL1        0.0244
     30 H           1.8286    2.6035   -1.6646 H       1  UNL1        0.1497
     31 H           6.2829    3.0892   -0.2860 H       1  UNL1        0.0622
     32 H           7.1987    5.3469   -0.6430 H       1  UNL1        0.0618
     33 H           6.3214    6.7582   -2.4600 H       1  UNL1        0.0618
     34 H           4.5335    5.9091   -3.9248 H       1  UNL1        0.0618
     35 H           3.6235    3.6482   -3.5731 H       1  UNL1        0.0622
     36 H1          6.0845    0.8360   -2.1348 H       1  UNL1        0.2005
     37 H2          5.9148    1.2136   -0.5240 H       1  UNL1        0.2005
     38 H           0.3211    1.6515    2.6499 H       1  UNL1        0.0244
     39 H          -0.2223    2.4453    4.1476 H       1  UNL1        0.0244
     40 H          -1.1064    1.0353    3.5164 H       1  UNL1        0.0244
     41 N           5.4253    0.9009   -1.3609 N.4     1  UNL1        0.2307
     42 H3          5.0216   -0.0268   -1.1859 H       1  UNL1        0.2005
     43 OXT        -3.6786    0.4425    1.4173 O.co2   1  UNL1       -0.5478
@<TRIPOS>UNITY_ATOM_ATTR
41 1
charge 1
43 1
charge -1
@<TRIPOS>BOND
     1     1     2    1
     2     1    27    1
     3     1    28    1
     4     1    29    1
     5     2     8    1
     6     2     3    1
     7     2    26    1
     8     3     4    1
     9     3     5    1
    10     3    24    1
    11     5    11   am
    12     5     6    1
    13     6     7    1
    14     6     8    1
    15     6     9    1
    16     9    10    1
    17     9    11    1
    18     9    13    1
    19    11    12    2
    20    13    14   am
    21    13    30    1
    22    14    15    2
    23    14    16    1
    24    16    17    1
    25    16    18    1
    26    16    41    1
    27    18    23   ar
    28    18    19   ar
    29    19    20   ar
    30    19    31    1
    31    20    21   ar
    32    20    32    1
    33    21    22   ar
    34    21    33    1
    35    22    23   ar
    36    22    34    1
    37    23    35    1
    38    24    25   ar
    39    24    43   ar
    40    26    38    1
    41    26    39    1
    42    26    40    1
    43    36    41    1
    44    37    41    1
    45    41    42    1
