@<TRIPOS>MOLECULE
ZINC03831616
 49 50 0 0 0
SMALL
GASTEIGER

@<TRIPOS>ATOM
      1 C           3.8302    5.1315   -1.9223 C.3     1  UNL1       -0.0277
      2 C           2.4381    5.4033   -2.4891 C.3     1  UNL1        0.1006
      3 H           2.5392    6.1810   -3.2675 H       1  UNL1        0.0731
      4 C           1.4829    5.9278   -1.4270 C.3     1  UNL1       -0.0158
      5 C           2.0295    5.7549   -0.0132 C.3     1  UNL1       -0.0474
      6 C           0.9455    6.1587    0.9966 C.3     1  UNL1       -0.0267
      7 C           0.7629    5.0373    2.0199 C.3     1  UNL1        0.0553
      8 H           1.7194    4.5438    2.1932 H       1  UNL1        0.0593
      9 C          -0.2472    4.0188    1.4883 C.3     1  UNL1       -0.0269
     10 C           0.1292    2.6205    1.9804 C.3     1  UNL1       -0.0507
     11 C          -0.7303    1.5760    1.2676 C.3     1  UNL1       -0.0527
     12 C          -0.0127    1.0868    0.0080 C.3     1  UNL1       -0.0490
     13 C          -0.7563    1.5907   -1.2288 C.3     1  UNL1       -0.0267
     14 C          -0.0296    1.1657   -2.4779 C.ar    1  UNL1       -0.0264
     15 C          -0.3497   -0.0415   -3.0614 C.ar    1  UNL1       -0.0160
     16 C           0.2901   -0.4523   -4.2258 C.ar    1  UNL1        0.1206
     17 C           1.2512    0.3559   -4.8146 C.ar    1  UNL1        0.0221
     18 C           1.5866    1.5674   -4.2352 C.ar    1  UNL1        0.1345
     19 C           0.9573    1.9743   -3.0454 C.ar    1  UNL1        0.1036
     20 C           1.3745    3.2289   -2.3942 C.2     1  UNL1        0.3433
     21 O           1.1937    3.3738   -1.2038 O.2     1  UNL1       -0.2448
     22 O           1.9227    4.2119   -3.1247 O.3     1  UNL1       -0.4581
     23 O           2.5254    2.3538   -4.8187 O.3     1  UNL1       -0.5058
     24 O          -0.0264   -1.6462   -4.7881 O.3     1  UNL1       -0.5066
     25 O           0.2825    5.5869    3.2482 O.3     1  UNL1       -0.3918
     26 H           4.5003    4.8372   -2.7301 H       1  UNL1        0.0265
     27 H           4.2110    6.0346   -1.4452 H       1  UNL1        0.0265
     28 H           3.7728    4.3288   -1.1871 H       1  UNL1        0.0265
     29 H           1.3018    6.9964   -1.6050 H       1  UNL1        0.0301
     30 H           0.5202    5.4148   -1.5101 H       1  UNL1        0.0301
     31 H           2.2995    4.7170    0.1705 H       1  UNL1        0.0267
     32 H           2.8918    6.4050    0.1421 H       1  UNL1        0.0267
     33 H           1.2542    7.0717    1.5056 H       1  UNL1        0.0290
     34 H           0.0087    6.3302    0.4697 H       1  UNL1        0.0290
     35 H          -1.2448    4.2748    1.8476 H       1  UNL1        0.0290
     36 H          -0.2415    4.0365    0.3986 H       1  UNL1        0.0290
     37 H           1.1819    2.4311    1.7736 H       1  UNL1        0.0266
     38 H          -0.0443    2.5579    3.0562 H       1  UNL1        0.0266
     39 H          -1.6876    2.0192    0.9913 H       1  UNL1        0.0265
     40 H          -0.9038    0.7318    1.9363 H       1  UNL1        0.0265
     41 H           0.0021   -0.0041    0.0020 H       1  UNL1        0.0268
     42 H           1.0104    1.4596    0.0002 H       1  UNL1        0.0268
     43 H          -1.7627    1.1631   -1.2407 H       1  UNL1        0.0313
     44 H          -0.8372    2.6757   -1.1963 H       1  UNL1        0.0313
     45 H          -1.1023   -0.6702   -2.6087 H       1  UNL1        0.0657
     46 H           1.7411    0.0395   -5.7237 H       1  UNL1        0.0691
     47 H           2.1681    2.9823   -5.4609 H       1  UNL1        0.2922
     48 H          -0.7445   -1.5987   -5.4340 H       1  UNL1        0.2921
     49 H           0.1433    4.9309    3.9448 H       1  UNL1        0.2098
@<TRIPOS>BOND
     1     1     2    1
     2     1    26    1
     3     1    27    1
     4     1    28    1
     5     2     3    1
     6     2    22    1
     7     2     4    1
     8     4     5    1
     9     4    29    1
    10     4    30    1
    11     5     6    1
    12     5    31    1
    13     5    32    1
    14     6     7    1
    15     6    33    1
    16     6    34    1
    17     7     8    1
    18     7     9    1
    19     7    25    1
    20     9    10    1
    21     9    35    1
    22     9    36    1
    23    10    11    1
    24    10    37    1
    25    10    38    1
    26    11    12    1
    27    11    39    1
    28    11    40    1
    29    12    13    1
    30    12    41    1
    31    12    42    1
    32    13    14    1
    33    13    43    1
    34    13    44    1
    35    14    19   ar
    36    14    15   ar
    37    15    16   ar
    38    15    45    1
    39    16    17   ar
    40    16    24    1
    41    17    18   ar
    42    17    46    1
    43    18    19   ar
    44    18    23    1
    45    19    20    1
    46    20    21    2
    47    20    22    1
    48    23    47    1
    49    24    48    1
    50    25    49    1
