@<TRIPOS>MOLECULE
ZINC09231861
 31 30 0 0 0
SMALL
GASTEIGER

@<TRIPOS>ATOM
      1 C           1.1525    1.3552   -4.9153 C.3     1  UNL1       -0.0448
      2 C           1.2036    1.4640   -2.4970 C.3     1  UNL1       -0.0047
      3 C           2.0397    1.1274   -1.2607 C.3     1  UNL1        0.1229
      4 H           2.9933    1.6528   -1.3129 H       1  UNL1        0.0674
      5 C           1.2864    1.5618   -0.0018 C.3     1  UNL1        0.1143
      6 H           1.1856    2.6471    0.0050 H       1  UNL1        0.0648
      7 C           2.0636    1.1140    1.2377 C.3     1  UNL1        0.1116
      8 H           2.1644    0.0287    1.2309 H       1  UNL1        0.0647
      9 C           1.3102    1.5483    2.4965 C.3     1  UNL1        0.1065
     10 H           1.2094    2.6337    2.5033 H       1  UNL1        0.0643
     11 C           2.0874    1.1006    3.7360 C.3     1  UNL1        0.0727
     12 O           1.4460    1.6059    4.9087 O.3     1  UNL1       -0.3924
     13 O           0.0128    0.9494    2.5057 O.3     1  UNL1       -0.3869
     14 O           3.3610    1.7129    1.2285 O.3     1  UNL1       -0.3865
     15 O          -0.0110    0.9628    0.0073 O.3     1  UNL1       -0.3864
     16 O           2.2741   -0.2815   -1.2132 O.3     1  UNL1       -0.3838
     17 H           0.1986    0.8290   -4.8799 H       1  UNL1        0.0777
     18 H           0.9734    2.4290   -4.9683 H       1  UNL1        0.0777
     19 H           1.7110    1.0361   -5.7954 H       1  UNL1        0.0777
     20 H           0.2500    0.9386   -2.4448 H       1  UNL1        0.0840
     21 H           1.0249    2.5386   -2.5332 H       1  UNL1        0.0840
     22 H           2.1117    0.0116    3.7758 H       1  UNL1        0.0584
     23 H           3.1061    1.4851    3.6847 H       1  UNL1        0.0584
     24 H           1.8857    1.3603    5.7342 H       1  UNL1        0.2095
     25 H           0.0259   -0.0175    2.5003 H       1  UNL1        0.2100
     26 H           3.3479    2.6798    1.2338 H       1  UNL1        0.2100
     27 H           0.0021   -0.0041    0.0020 H       1  UNL1        0.2100
     28 H           1.4676   -0.8129   -1.1657 H       1  UNL1        0.2101
     29 N           1.9366    1.0423   -3.7057 N.4     1  UNL1        0.2267
     30 H           2.8351    1.5376   -3.7470 H       1  UNL1        0.2012
     31 H           2.1053    0.0304   -3.6637 H       1  UNL1        0.2012
@<TRIPOS>UNITY_ATOM_ATTR
29 1
charge 1
@<TRIPOS>BOND
     1     1    17    1
     2     1    18    1
     3     1    19    1
     4     1    29    1
     5     2     3    1
     6     2    20    1
     7     2    21    1
     8     2    29    1
     9     3     4    1
    10     3     5    1
    11     3    16    1
    12     5     6    1
    13     5     7    1
    14     5    15    1
    15     7     8    1
    16     7     9    1
    17     7    14    1
    18     9    10    1
    19     9    11    1
    20     9    13    1
    21    11    12    1
    22    11    22    1
    23    11    23    1
    24    12    24    1
    25    13    25    1
    26    14    26    1
    27    15    27    1
    28    16    28    1
    29    29    30    1
    30    29    31    1
