@<TRIPOS>MOLECULE
ZINC00538578
 44 45 0 0 0
SMALL
GASTEIGER

@<TRIPOS>ATOM
      1 C          -2.5274    5.5973    8.4116 C.3     1  UNL1       -0.0306
      2 C          -2.0107    4.2445    7.9181 C.3     1  UNL1        0.0897
      3 O          -2.6242    3.9278    6.6669 O.3     1  UNL1       -0.4644
      4 C          -2.2739    2.7586    6.0914 C.2     1  UNL1        0.3167
      5 O          -1.4689    2.0283    6.6384 O.2     1  UNL1       -0.2501
      6 C          -2.8425    2.3820    4.8525 C.3     1  UNL1        0.1053
      7 C          -4.1178    1.9585    4.8159 C.2     1  UNL1        0.0307
      8 N          -4.6967    1.5796    3.6355 N.2     1  UNL1       -0.2600
      9 C          -3.9205    1.2833    2.5483 C.2     1  UNL1        0.0487
     10 C          -2.6355    1.6737    2.4928 C.2     1  UNL1        0.0660
     11 C          -2.0067    2.4597    3.6082 C.3     1  UNL1        0.0372
     12 H          -1.0126    2.0618    3.8115 H       1  UNL1        0.0412
     13 C          -1.8879    3.9033    3.1923 C.ar    1  UNL1       -0.0188
     14 C          -3.0217    4.6249    2.8682 C.ar    1  UNL1       -0.0565
     15 C          -2.9136    5.9491    2.4871 C.ar    1  UNL1       -0.0600
     16 C          -1.6715    6.5533    2.4287 C.ar    1  UNL1       -0.0420
     17 C          -0.5362    5.8327    2.7519 C.ar    1  UNL1        0.0595
     18 C          -0.6451    4.5079    3.1405 C.ar    1  UNL1        0.0630
     19 CL          0.7782    3.6044    3.5548 Cl      1  UNL1       -0.0817
     20 CL          1.0239    6.5905    2.6776 Cl      1  UNL1       -0.0820
     21 C          -1.8586    1.3378    1.3599 C.2     1  UNL1        0.3372
     22 O          -1.0405    0.4395    1.4278 O.2     1  UNL1       -0.2452
     23 O          -2.0247    2.0132    0.2034 O.3     1  UNL1       -0.4646
     24 C          -1.2064    1.6206   -0.9004 C.3     1  UNL1        0.0820
     25 C          -4.5132    0.5090    1.3993 C.3     1  UNL1       -0.0218
     26 C          -4.9196    1.9003    6.0905 C.3     1  UNL1       -0.0254
     27 H          -2.0595    5.8388    9.3660 H       1  UNL1        0.0262
     28 H          -2.2822    6.3684    7.6812 H       1  UNL1        0.0262
     29 H          -3.6088    5.5486    8.5393 H       1  UNL1        0.0262
     30 H          -2.2559    3.4735    8.6485 H       1  UNL1        0.0694
     31 H          -0.9293    4.2932    7.7904 H       1  UNL1        0.0694
     32 H          -3.2655    3.1801    4.4236 H       1  UNL1        0.0484
     33 H          -3.9924    4.1537    2.9132 H       1  UNL1        0.0621
     34 H          -3.8000    6.5120    2.2344 H       1  UNL1        0.0618
     35 H          -1.5878    7.5879    2.1306 H       1  UNL1        0.0633
     36 H          -0.1562    1.7453   -0.6366 H       1  UNL1        0.0661
     37 H          -1.4401    2.2419   -1.7649 H       1  UNL1        0.0661
     38 H          -1.3989    0.5753   -1.1416 H       1  UNL1        0.0661
     39 H          -4.2805   -0.5495    1.5161 H       1  UNL1        0.0293
     40 H          -5.5947    0.6443    1.3895 H       1  UNL1        0.0293
     41 H          -4.0931    0.8720    0.4614 H       1  UNL1        0.0293
     42 H          -5.4880    2.8233    6.2046 H       1  UNL1        0.0290
     43 H          -5.6053    1.0539    6.0501 H       1  UNL1        0.0290
     44 H          -4.2455    1.7816    6.9387 H       1  UNL1        0.0290
@<TRIPOS>BOND
     1     1     2    1
     2     1    27    1
     3     1    28    1
     4     1    29    1
     5     2     3    1
     6     2    30    1
     7     2    31    1
     8     3     4    1
     9     4     5    2
    10     4     6    1
    11     6    11    1
    12     6     7    1
    13     6    32    1
    14     7    26    1
    15     7     8    2
    16     8     9    1
    17     9    25    1
    18     9    10    2
    19    10    11    1
    20    10    21    1
    21    11    12    1
    22    11    13    1
    23    13    18   ar
    24    13    14   ar
    25    14    15   ar
    26    14    33    1
    27    15    16   ar
    28    15    34    1
    29    16    17   ar
    30    16    35    1
    31    17    18   ar
    32    17    20    1
    33    18    19    1
    34    21    22    2
    35    21    23    1
    36    23    24    1
    37    24    36    1
    38    24    37    1
    39    24    38    1
    40    25    39    1
    41    25    40    1
    42    25    41    1
    43    26    42    1
    44    26    43    1
    45    26    44    1
