@<TRIPOS>MOLECULE
ZINC08552390
 49 52 0 0 0
SMALL
GASTEIGER

@<TRIPOS>ATOM
      1 C           0.0531    2.6580    1.8449 C.3     1  UNL1       -0.0567
      2 C          -0.7747    1.5605    1.1750 C.3     1  UNL1       -0.0004
      3 C          -0.0129    1.0973    0.0081 C.3     1  UNL1       -0.0445
      4 C          -0.6451    1.5565   -1.3463 C.3     1  UNL1       -0.0488
      5 C          -0.9671    3.0274   -1.1838 C.3     1  UNL1       -0.0314
      6 H          -0.1055    3.4674   -0.7197 H       1  UNL1        0.0309
      7 C          -2.0831    3.2890   -0.1103 C.3     1  UNL1       -0.0340
      8 H          -1.8645    4.0828    0.4326 H       1  UNL1        0.0307
      9 C          -2.1907    2.0370    0.6897 C.3     1  UNL1       -0.0298
     10 H          -2.6722    1.1806    0.1940 H       1  UNL1        0.0310
     11 C          -2.8207    2.2386    2.0442 C.3     1  UNL1       -0.0468
     12 C          -2.3370    1.1554    2.9724 C.3     1  UNL1       -0.0235
     13 C          -1.1094    0.5174    2.2176 C.3     1  UNL1        0.0689
     14 C           0.1393    0.3950    3.1944 C.3     1  UNL1       -0.0356
     15 O          -1.4424   -0.6676    1.6612 O.3     1  UNL1       -0.3883
     16 C          -3.4676    3.5053   -0.7970 C.3     1  UNL1       -0.0460
     17 C          -3.4465    4.5704   -1.8688 C.3     1  UNL1       -0.0308
     18 C          -2.4449    4.1808   -2.9100 C.2     1  UNL1       -0.0629
     19 C          -2.8494    4.1813   -4.1497 C.2     1  UNL1       -0.0197
     20 C          -1.8579    3.7616   -5.2305 C.2     1  UNL1        0.1561
     21 O          -2.2104    3.4529   -6.3772 O.2     1  UNL1       -0.2927
     22 C          -0.4263    3.8849   -4.9155 C.3     1  UNL1        0.0104
     23 C          -0.1701    3.1341   -3.5253 C.3     1  UNL1       -0.0392
     24 C          -1.0818    3.8203   -2.4297 C.3     1  UNL1       -0.0160
     25 H          -0.5318    4.7857   -2.2557 H       1  UNL1        0.0349
     26 H           0.2013    3.4800    1.1446 H       1  UNL1        0.0236
     27 H          -0.4730    3.0226    2.7271 H       1  UNL1        0.0236
     28 H           1.0212    2.2536    2.1406 H       1  UNL1        0.0236
     29 H           0.0021   -0.0041    0.0020 H       1  UNL1        0.0272
     30 H           1.0806    1.3782   -0.0009 H       1  UNL1        0.0272
     31 H           0.0398    1.3598   -2.1771 H       1  UNL1        0.0268
     32 H          -1.5949    1.0096   -1.4728 H       1  UNL1        0.0268
     33 H          -2.6351    3.2640    2.4638 H       1  UNL1        0.0269
     34 H          -3.9750    2.1514    2.0186 H       1  UNL1        0.0269
     35 H          -3.0649    0.3127    3.1519 H       1  UNL1        0.0293
     36 H          -1.9538    1.5120    3.9547 H       1  UNL1        0.0293
     37 H           0.3260    1.3589    3.6680 H       1  UNL1        0.0257
     38 H          -0.0704   -0.3516    3.9604 H       1  UNL1        0.0257
     39 H           1.0183    0.0939    2.6245 H       1  UNL1        0.0257
     40 H          -1.6621   -1.3560    2.3038 H       1  UNL1        0.2102
     41 H          -3.7709    2.4870   -1.2354 H       1  UNL1        0.0271
     42 H          -4.1592    3.7624    0.0016 H       1  UNL1        0.0271
     43 H          -4.4396    4.7098   -2.2675 H       1  UNL1        0.0310
     44 H          -3.1655    5.4880   -1.3508 H       1  UNL1        0.0310
     45 H          -3.8199    4.4224   -4.3863 H       1  UNL1        0.0652
     46 H           0.1138    3.4919   -5.6597 H       1  UNL1        0.0345
     47 H          -0.0616    4.8496   -4.7455 H       1  UNL1        0.0345
     48 H          -0.5455    2.0875   -3.6800 H       1  UNL1        0.0275
     49 H           0.8473    3.1444   -3.2605 H       1  UNL1        0.0275
@<TRIPOS>BOND
     1     1     2    1
     2     1    26    1
     3     1    27    1
     4     1    28    1
     5     2     9    1
     6     2    13    1
     7     2     3    1
     8     3     4    1
     9     3    29    1
    10     3    30    1
    11     4     5    1
    12     4    31    1
    13     4    32    1
    14     5     6    1
    15     5    24    1
    16     5     7    1
    17     7     8    1
    18     7     9    1
    19     7    16    1
    20     9    10    1
    21     9    11    1
    22    11    12    1
    23    11    33    1
    24    11    34    1
    25    12    13    1
    26    12    35    1
    27    12    36    1
    28    13    14    1
    29    13    15    1
    30    14    37    1
    31    14    38    1
    32    14    39    1
    33    15    40    1
    34    16    17    1
    35    16    41    1
    36    16    42    1
    37    17    18    1
    38    17    43    1
    39    17    44    1
    40    18    24    1
    41    18    19    2
    42    19    20    1
    43    19    45    1
    44    20    21    2
    45    20    22    1
    46    22    23    1
    47    22    46    1
    48    22    47    1
    49    23    24    1
    50    23    48    1
    51    23    49    1
    52    24    25    1
