@<TRIPOS>MOLECULE
ZINC03954487
 53 56 0 0 0
SMALL
GASTEIGER

@<TRIPOS>ATOM
      1 C          -0.3305   -2.8012    4.0480 C.3     1  UNL1       -0.0428
      2 C           1.0318   -2.7042    2.0492 C.3     1  UNL1       -0.0319
      3 C           1.9262   -1.7904    1.2083 C.3     1  UNL1       -0.0123
      4 C           1.0850   -0.6451    0.6380 C.3     1  UNL1       -0.0432
      5 C           0.4252    0.1163    1.7911 C.3     1  UNL1       -0.0094
      6 C          -0.4257   -0.8528    2.6150 C.3     1  UNL1       -0.0197
      7 H          -1.2043   -1.2800    1.9831 H       1  UNL1        0.0851
      8 C          -1.0711   -0.1003    3.7804 C.3     1  UNL1        0.0064
      9 C          -2.0346    0.9555    3.2346 C.3     1  UNL1        0.0224
     10 N          -2.7468    1.5885    4.3474 N.pl3   1  UNL1       -0.2981
     11 C          -3.9428    1.0069    4.7600 C.ar    1  UNL1        0.0479
     12 C          -4.1597   -0.3415    4.4943 C.ar    1  UNL1       -0.0393
     13 C          -5.3381   -0.9490    4.8842 C.ar    1  UNL1       -0.0599
     14 C          -6.3118   -0.2212    5.5416 C.ar    1  UNL1       -0.0606
     15 C          -6.1058    1.1189    5.8137 C.ar    1  UNL1       -0.0462
     16 C          -4.9236    1.7348    5.4280 C.ar    1  UNL1        0.0341
     17 S          -4.6736    3.4395    5.7943 S.3     1  UNL1       -0.0857
     18 C          -2.9372    3.6656    5.6036 C.ar    1  UNL1        0.0342
     19 C          -2.1737    2.7230    4.9161 C.ar    1  UNL1        0.0490
     20 C          -0.8066    2.9267    4.7784 C.ar    1  UNL1       -0.0235
     21 C          -0.2083    4.0470    5.3241 C.ar    1  UNL1        0.0404
     22 C          -0.9671    4.9777    6.0073 C.ar    1  UNL1       -0.0448
     23 C          -2.3301    4.7881    6.1477 C.ar    1  UNL1       -0.0451
     24 S           1.5280    4.2892    5.1472 S.O     1  UNL1        0.0507
     25 O           1.8611    3.5494    3.9806 O.2     1  UNL1       -0.2524
     26 C           2.2357    3.4722    6.6039 C.3     1  UNL1        0.0163
     27 H           0.3100   -3.6160    4.3854 H       1  UNL1        0.0778
     28 H          -0.6677   -2.2238    4.9087 H       1  UNL1        0.0778
     29 H          -1.1943   -3.2110    3.5244 H       1  UNL1        0.0778
     30 H           0.2464   -3.1228    1.4198 H       1  UNL1        0.0814
     31 H           1.6306   -3.5127    2.4685 H       1  UNL1        0.0814
     32 H           2.7201   -1.3824    1.8339 H       1  UNL1        0.0317
     33 H           2.3643   -2.3624    0.3904 H       1  UNL1        0.0317
     34 H           1.7264    0.0321    0.0741 H       1  UNL1        0.0269
     35 H           0.3151   -1.0505   -0.0185 H       1  UNL1        0.0269
     36 H           1.1955    0.5543    2.4258 H       1  UNL1        0.0320
     37 H          -0.2086    0.9070    1.3896 H       1  UNL1        0.0320
     38 H          -1.6196   -0.8031    4.4075 H       1  UNL1        0.0335
     39 H          -0.2960    0.3865    4.3724 H       1  UNL1        0.0335
     40 H          -1.4725    1.7114    2.6861 H       1  UNL1        0.0470
     41 H          -2.7531    0.4809    2.5663 H       1  UNL1        0.0470
     42 H          -3.4031   -0.9164    3.9811 H       1  UNL1        0.0636
     43 H          -5.4988   -1.9961    4.6741 H       1  UNL1        0.0618
     44 H          -7.2328   -0.6984    5.8421 H       1  UNL1        0.0618
     45 H          -6.8666    1.6873    6.3281 H       1  UNL1        0.0629
     46 H          -0.2073    2.2034    4.2453 H       1  UNL1        0.0648
     47 H          -0.4965    5.8525    6.4312 H       1  UNL1        0.0630
     48 H          -2.9231    5.5157    6.6818 H       1  UNL1        0.0630
     49 H           1.9654    2.4162    6.5955 H       1  UNL1        0.0368
     50 H           3.3212    3.5695    6.5836 H       1  UNL1        0.0368
     51 H           1.8459    3.9398    7.5080 H       1  UNL1        0.0368
     52 N           0.4465   -1.9168    3.1554 N.4     1  UNL1        0.2353
     53 H           1.2058   -1.4835    3.6938 H       1  UNL1        0.2033
@<TRIPOS>UNITY_ATOM_ATTR
52 1
charge 1
@<TRIPOS>BOND
     1     1    27    1
     2     1    28    1
     3     1    29    1
     4     1    52    1
     5     2     3    1
     6     2    30    1
     7     2    31    1
     8     2    52    1
     9     3     4    1
    10     3    32    1
    11     3    33    1
    12     4     5    1
    13     4    34    1
    14     4    35    1
    15     5     6    1
    16     5    36    1
    17     5    37    1
    18     6     7    1
    19     6     8    1
    20     6    52    1
    21     8     9    1
    22     8    38    1
    23     8    39    1
    24     9    10    1
    25     9    40    1
    26     9    41    1
    27    10    19    1
    28    10    11    1
    29    11    16   ar
    30    11    12   ar
    31    12    13   ar
    32    12    42    1
    33    13    14   ar
    34    13    43    1
    35    14    15   ar
    36    14    44    1
    37    15    16   ar
    38    15    45    1
    39    16    17    1
    40    17    18    1
    41    18    23   ar
    42    18    19   ar
    43    19    20   ar
    44    20    21   ar
    45    20    46    1
    46    21    22   ar
    47    21    24    1
    48    22    23   ar
    49    22    47    1
    50    23    48    1
    51    24    25    2
    52    24    26    1
    53    26    49    1
    54    26    50    1
    55    26    51    1
    56    52    53    1
