@<TRIPOS>MOLECULE
ZINC03995315
 42 44 0 0 0
SMALL
GASTEIGER

@<TRIPOS>ATOM
      1 C          -7.7786    0.8834    1.7831 C.3     1  UNL1       -0.0484
      2 C          -7.3516    1.0161    0.3199 C.3     1  UNL1        0.0601
      3 C          -7.8930   -0.1095   -0.5581 C.3     1  UNL1        0.0038
      4 C          -9.3768    0.3367   -0.7494 C.3     1  UNL1       -0.0292
      5 C          -8.0489    2.2165   -0.4261 C.3     1  UNL1        0.0583
      6 H          -7.6254    2.0889   -1.4223 H       1  UNL1        0.1088
      7 N          -7.3488    3.3207    0.1388 N.pl3   1  UNL1       -0.2914
      8 C          -5.9907    2.8807    0.1284 C.ar    1  UNL1        0.0378
      9 C          -5.9371    1.4752    0.1815 C.ar    1  UNL1       -0.0096
     10 C          -4.7187    0.8380    0.1366 C.ar    1  UNL1       -0.0135
     11 C          -3.5445    1.5730    0.0616 C.ar    1  UNL1        0.1336
     12 C          -3.5944    2.9588    0.0365 C.ar    1  UNL1       -0.0174
     13 C          -4.8137    3.6066    0.0643 C.ar    1  UNL1       -0.0368
     14 O          -2.3442    0.9347    0.0182 O.3     1  UNL1       -0.4115
     15 C          -1.6223    0.9125    1.1547 C.2     1  UNL1        0.4053
     16 O          -2.0087    1.5226    2.1320 O.2     1  UNL1       -0.2260
     17 N          -0.4712    0.2134    1.2083 N.am    1  UNL1       -0.2839
     18 C           0.3173    0.1942    2.4429 C.3     1  UNL1        0.0032
     19 C          -7.5176    4.5269   -0.6825 C.3     1  UNL1        0.0056
     20 C         -10.0548    2.4990   -1.6681 C.3     1  UNL1       -0.0412
     21 H          -7.6708    1.8465    2.2819 H       1  UNL1        0.0241
     22 H          -8.8198    0.5643    1.8302 H       1  UNL1        0.0241
     23 H          -7.1495    0.1446    2.2797 H       1  UNL1        0.0241
     24 H          -7.8359   -1.0689   -0.0440 H       1  UNL1        0.0328
     25 H          -7.3693   -0.1473   -1.5133 H       1  UNL1        0.0328
     26 H         -10.0132   -0.1549   -0.0136 H       1  UNL1        0.0815
     27 H          -9.7143    0.0946   -1.7571 H       1  UNL1        0.0815
     28 H          -4.6761   -0.2409    0.1596 H       1  UNL1        0.0658
     29 H          -2.6798    3.5312   -0.0090 H       1  UNL1        0.0655
     30 H          -4.8491    4.6857    0.0401 H       1  UNL1        0.0637
     31 H          -0.1628   -0.2736    0.4282 H       1  UNL1        0.1517
     32 H           1.2094   -0.4143    2.2947 H       1  UNL1        0.0427
     33 H           0.6102    1.2114    2.7028 H       1  UNL1        0.0427
     34 H          -0.2812   -0.2290    3.2496 H       1  UNL1        0.0427
     35 H          -7.2306    4.3092   -1.7112 H       1  UNL1        0.0429
     36 H          -8.5607    4.8420   -0.6553 H       1  UNL1        0.0429
     37 H          -6.8868    5.3247   -0.2904 H       1  UNL1        0.0429
     38 H          -9.5368    2.2476   -2.5936 H       1  UNL1        0.0778
     39 H         -11.0937    2.1760   -1.7339 H       1  UNL1        0.0778
     40 H         -10.0187    3.5773   -1.5129 H       1  UNL1        0.0778
     41 N          -9.3829    1.7958   -0.5282 N.4     1  UNL1        0.2494
     42 H          -9.8827    2.0103    0.3427 H       1  UNL1        0.2051
@<TRIPOS>UNITY_ATOM_ATTR
41 1
charge 1
@<TRIPOS>BOND
     1     1     2    1
     2     1    21    1
     3     1    22    1
     4     1    23    1
     5     2     5    1
     6     2     9    1
     7     2     3    1
     8     3     4    1
     9     3    24    1
    10     3    25    1
    11     4    26    1
    12     4    27    1
    13     4    41    1
    14     5     6    1
    15     5     7    1
    16     5    41    1
    17     7     8    1
    18     7    19    1
    19     8    13   ar
    20     8     9   ar
    21     9    10   ar
    22    10    11   ar
    23    10    28    1
    24    11    12   ar
    25    11    14    1
    26    12    13   ar
    27    12    29    1
    28    13    30    1
    29    14    15    1
    30    15    16    2
    31    15    17   am
    32    17    18    1
    33    17    31    1
    34    18    32    1
    35    18    33    1
    36    18    34    1
    37    19    35    1
    38    19    36    1
    39    19    37    1
    40    20    38    1
    41    20    39    1
    42    20    40    1
    43    20    41    1
    44    41    42    1
