@<TRIPOS>MOLECULE
ZINC12502143
 56 59 0 0 0
SMALL
GASTEIGER

@<TRIPOS>ATOM
      1 C          -2.8825   -0.2090   -1.5810 C.3     1  UNL1       -0.0528
      2 C          -2.6251    1.2951   -1.4699 C.3     1  UNL1        0.0263
      3 C          -3.3928    1.9724   -2.5913 C.3     1  UNL1       -0.0339
      4 C          -2.6432    1.8923   -3.9203 C.3     1  UNL1        0.0107
      5 C          -1.2870    2.5389   -3.7156 C.2     1  UNL1        0.1561
      6 O          -0.8591    3.3809   -4.4771 O.2     1  UNL1       -0.2927
      7 C          -0.5199    2.0915   -2.5479 C.2     1  UNL1       -0.0194
      8 C          -1.1449    1.5178   -1.5202 C.2     1  UNL1       -0.0572
      9 C          -0.2991    1.0588   -0.3463 C.3     1  UNL1       -0.0304
     10 C          -0.9274    1.5770    0.9491 C.3     1  UNL1       -0.0432
     11 C          -2.3884    1.1124    1.0175 C.3     1  UNL1       -0.0000
     12 H          -2.4477    0.0273    0.9331 H       1  UNL1        0.0335
     13 C          -3.1795    1.7716   -0.1215 C.3     1  UNL1        0.1492
     14 C          -4.6664    1.4376   -0.0457 C.3     1  UNL1        0.0907
     15 H          -4.8015    0.3725   -0.2336 H       1  UNL1        0.0625
     16 C          -5.2568    1.7810    1.3311 C.3     1  UNL1       -0.0151
     17 C          -4.4573    1.0116    2.3651 C.3     1  UNL1        0.0093
     18 C          -3.0077    1.5657    2.3271 C.3     1  UNL1       -0.0266
     19 H          -3.0137    2.6533    2.3988 H       1  UNL1        0.0311
     20 C          -2.4070    0.9507    3.5960 C.3     1  UNL1       -0.0462
     21 C          -3.5519    1.1070    4.6338 C.3     1  UNL1       -0.0162
     22 C          -4.8676    1.2024    3.8217 C.3     1  UNL1        0.1315
     23 C          -5.5020    2.5559    4.0125 C.2     1  UNL1        0.1902
     24 O          -4.8143    3.5139    4.2724 O.2     1  UNL1       -0.2919
     25 C          -6.9948    2.7140    3.8789 C.3     1  UNL1        0.1052
     26 O          -7.3510    4.0797    4.1026 O.3     1  UNL1       -0.3874
     27 O          -5.7717    0.1701    4.2207 O.3     1  UNL1       -0.3804
     28 C          -4.4529   -0.4776    2.0142 C.3     1  UNL1       -0.0562
     29 O          -5.3624    2.1794   -1.0494 O.3     1  UNL1       -0.3886
     30 F          -3.0193    3.1583   -0.0285 F       1  UNL1       -0.2380
     31 H          -2.3967   -0.7230   -0.7516 H       1  UNL1        0.0239
     32 H          -3.9555   -0.3975   -1.5468 H       1  UNL1        0.0239
     33 H          -2.4787   -0.5781   -2.5238 H       1  UNL1        0.0239
     34 H          -4.3630    1.4878   -2.7008 H       1  UNL1        0.0279
     35 H          -3.5466    3.0204   -2.3340 H       1  UNL1        0.0279
     36 H          -2.5410    0.9343   -4.1881 H       1  UNL1        0.0345
     37 H          -3.1975    2.4275   -4.6912 H       1  UNL1        0.0345
     38 H           0.5511    2.2274   -2.5211 H       1  UNL1        0.0652
     39 H          -0.2638   -0.0304   -0.3251 H       1  UNL1        0.0310
     40 H           0.7112    1.4553   -0.4466 H       1  UNL1        0.0310
     41 H          -0.3764    1.1842    1.8037 H       1  UNL1        0.0272
     42 H          -0.8912    2.6663    0.9610 H       1  UNL1        0.0272
     43 H          -5.1700    2.8517    1.5158 H       1  UNL1        0.0297
     44 H          -6.3040    1.4812    1.3712 H       1  UNL1        0.0297
     45 H          -2.1694   -0.1015    3.4395 H       1  UNL1        0.0269
     46 H          -1.5225    1.5041    3.9114 H       1  UNL1        0.0269
     47 H          -3.5809    0.2390    5.2925 H       1  UNL1        0.0297
     48 H          -3.4061    2.0157    5.2178 H       1  UNL1        0.0297
     49 H          -7.2778    2.4420    2.9592 H       1  UNL1        0.0637
     50 H          -7.4942    2.0832    4.6142 H       1  UNL1        0.0637
     51 H          -8.2993    4.2554    4.0322 H       1  UNL1        0.2100
     52 H          -6.0674    0.2395    5.1387 H       1  UNL1        0.2108
     53 H          -4.0566   -0.6126    1.0078 H       1  UNL1        0.0236
     54 H          -3.8279   -1.0168    2.7261 H       1  UNL1        0.0236
     55 H          -5.4710   -0.8644    2.0587 H       1  UNL1        0.0236
     56 H          -6.3162    2.0209   -1.0652 H       1  UNL1        0.2099
@<TRIPOS>BOND
     1     1     2    1
     2     1    31    1
     3     1    32    1
     4     1    33    1
     5     2     8    1
     6     2    13    1
     7     2     3    1
     8     3     4    1
     9     3    34    1
    10     3    35    1
    11     4     5    1
    12     4    36    1
    13     4    37    1
    14     5     6    2
    15     5     7    1
    16     7     8    2
    17     7    38    1
    18     8     9    1
    19     9    10    1
    20     9    39    1
    21     9    40    1
    22    10    11    1
    23    10    41    1
    24    10    42    1
    25    11    12    1
    26    11    18    1
    27    11    13    1
    28    13    14    1
    29    13    30    1
    30    14    15    1
    31    14    16    1
    32    14    29    1
    33    16    17    1
    34    16    43    1
    35    16    44    1
    36    17    22    1
    37    17    18    1
    38    17    28    1
    39    18    19    1
    40    18    20    1
    41    20    21    1
    42    20    45    1
    43    20    46    1
    44    21    22    1
    45    21    47    1
    46    21    48    1
    47    22    23    1
    48    22    27    1
    49    23    24    2
    50    23    25    1
    51    25    26    1
    52    25    49    1
    53    25    50    1
    54    26    51    1
    55    27    52    1
    56    28    53    1
    57    28    54    1
    58    28    55    1
    59    29    56    1
