@<TRIPOS>MOLECULE
ZINC03830295
 73 76 0 0 0
SMALL
GASTEIGER

@<TRIPOS>ATOM
      1 C          -1.3297    2.3440   -4.7384 C.3     1  UNL1       -0.0583
      2 C          -2.1731    1.3989   -3.8835 C.3     1  UNL1        0.0042
      3 H          -1.6022    0.5040   -3.6488 H       1  UNL1        0.0341
      4 C          -3.4804    1.0207   -4.6321 C.3     1  UNL1       -0.0426
      5 C          -4.5757    1.7719   -3.8546 C.3     1  UNL1       -0.0253
      6 H          -4.5571    2.8294   -4.1791 H       1  UNL1        0.0311
      7 C          -5.9918    1.2507   -4.0680 C.3     1  UNL1        0.0003
      8 H          -5.9438    0.1914   -4.3306 H       1  UNL1        0.0336
      9 C          -6.5233    2.0351   -5.2712 C.3     1  UNL1       -0.0432
     10 C          -8.0268    1.9370   -5.4928 C.3     1  UNL1       -0.0301
     11 C          -8.6924    2.2817   -4.1726 C.2     1  UNL1       -0.0532
     12 C          -9.5714    3.2674   -4.0949 C.2     1  UNL1       -0.0148
     13 C         -10.2323    3.5649   -2.8103 C.2     1  UNL1        0.1787
     14 O         -10.9731    4.5248   -2.6975 O.2     1  UNL1       -0.2879
     15 C          -9.9767    2.6738   -1.6631 C.2     1  UNL1       -0.0180
     16 C          -9.0789    1.7008   -1.7723 C.2     1  UNL1       -0.0674
     17 C          -8.2934    1.4370   -3.0117 C.3     1  UNL1        0.0443
     18 C          -6.7955    1.4474   -2.7875 C.3     1  UNL1        0.1526
     19 C          -6.3167    2.6791   -2.0331 C.3     1  UNL1        0.0910
     20 H          -7.0133    2.8796   -1.2051 H       1  UNL1        0.0626
     21 C          -4.9231    2.4130   -1.4369 C.3     1  UNL1       -0.0141
     22 C          -4.0727    1.6445   -2.4102 C.3     1  UNL1        0.0208
     23 C          -2.6133    2.1168   -2.5778 C.3     1  UNL1        0.1822
     24 C          -2.5135    3.6030   -2.7518 C.2     1  UNL1        0.2144
     25 O          -3.4588    4.2267   -3.1708 O.2     1  UNL1       -0.2895
     26 C          -1.2335    4.3181   -2.4037 C.3     1  UNL1        0.1542
     27 O          -1.4272    5.7507   -2.5387 O.3     1  UNL1       -0.4570
     28 C          -0.3746    6.5367   -2.2631 C.2     1  UNL1        0.3043
     29 O           0.6739    6.0439   -1.9202 O.2     1  UNL1       -0.2512
     30 C          -0.5007    8.0338   -2.3812 C.3     1  UNL1        0.0332
     31 O          -1.8123    1.6633   -1.4572 O.3     1  UNL1       -0.4492
     32 C          -2.0979    2.1842   -0.2536 C.2     1  UNL1        0.3106
     33 O          -2.9131    3.0709   -0.1570 O.2     1  UNL1       -0.2505
     34 C          -1.4019    1.6632    0.9773 C.3     1  UNL1        0.0509
     35 C           0.1076    1.8678    0.8348 C.3     1  UNL1       -0.0525
     36 C          -1.9054    2.4213    2.2073 C.3     1  UNL1       -0.0525
     37 C          -3.9642    0.1717   -1.9754 C.3     1  UNL1       -0.0551
     38 O          -6.2831    3.8235   -2.8867 O.3     1  UNL1       -0.3886
     39 F          -6.5801    0.3262   -1.9492 F       1  UNL1       -0.2377
     40 C          -8.6465   -0.0125   -3.3885 C.3     1  UNL1       -0.0493
     41 H          -0.3988    2.5707   -4.2188 H       1  UNL1        0.0234
     42 H          -1.1063    1.8683   -5.6933 H       1  UNL1        0.0234
     43 H          -1.8826    3.2671   -4.9128 H       1  UNL1        0.0234
     44 H          -3.6476   -0.0527   -4.6225 H       1  UNL1        0.0272
     45 H          -3.4383    1.3804   -5.6622 H       1  UNL1        0.0272
     46 H          -6.0096    1.6751   -6.1720 H       1  UNL1        0.0272
     47 H          -6.2470    3.0873   -5.1446 H       1  UNL1        0.0272
     48 H          -8.3112    0.9424   -5.8275 H       1  UNL1        0.0310
     49 H          -8.3376    2.6713   -6.2465 H       1  UNL1        0.0310
     50 H          -9.8122    3.8483   -4.9754 H       1  UNL1        0.0656
     51 H         -10.5309    2.8032   -0.7438 H       1  UNL1        0.0653
     52 H          -8.9144    1.0562   -0.9226 H       1  UNL1        0.0583
     53 H          -5.0383    1.8248   -0.5123 H       1  UNL1        0.0298
     54 H          -4.4616    3.3600   -1.1483 H       1  UNL1        0.0298
     55 H          -0.9777    4.1037   -1.4610 H       1  UNL1        0.0780
     56 H          -0.4410    3.9935   -3.0780 H       1  UNL1        0.0780
     57 H          -1.5113    8.2893   -2.6998 H       1  UNL1        0.0342
     58 H          -0.2978    8.4930   -1.4136 H       1  UNL1        0.0342
     59 H           0.2158    8.4020   -3.1154 H       1  UNL1        0.0342
     60 H          -1.6152    0.6006    1.0930 H       1  UNL1        0.0408
     61 H           0.4663    1.3278   -0.0414 H       1  UNL1        0.0237
     62 H           0.3209    2.9305    0.7191 H       1  UNL1        0.0237
     63 H           0.6110    1.4910    1.7251 H       1  UNL1        0.0237
     64 H          -1.6922    3.4839    2.0916 H       1  UNL1        0.0237
     65 H          -2.9809    2.2755    2.3088 H       1  UNL1        0.0237
     66 H          -1.4020    2.0444    3.0976 H       1  UNL1        0.0237
     67 H          -3.3217    0.0982   -1.0979 H       1  UNL1        0.0237
     68 H          -4.9561   -0.2095   -1.7325 H       1  UNL1        0.0237
     69 H          -3.5379   -0.4166   -2.7881 H       1  UNL1        0.0237
     70 H          -6.0122    4.6383   -2.4418 H       1  UNL1        0.2099
     71 H          -8.3625   -0.6791   -2.5741 H       1  UNL1        0.0242
     72 H          -9.7193   -0.0910   -3.5649 H       1  UNL1        0.0242
     73 H          -8.1079   -0.2943   -4.2932 H       1  UNL1        0.0242
@<TRIPOS>BOND
     1     1     2    1
     2     1    41    1
     3     1    42    1
     4     1    43    1
     5     2     3    1
     6     2    23    1
     7     2     4    1
     8     4     5    1
     9     4    44    1
    10     4    45    1
    11     5     6    1
    12     5    22    1
    13     5     7    1
    14     7     8    1
    15     7    18    1
    16     7     9    1
    17     9    10    1
    18     9    46    1
    19     9    47    1
    20    10    11    1
    21    10    48    1
    22    10    49    1
    23    11    17    1
    24    11    12    2
    25    12    13    1
    26    12    50    1
    27    13    14    2
    28    13    15    1
    29    15    16    2
    30    15    51    1
    31    16    17    1
    32    16    52    1
    33    17    18    1
    34    17    40    1
    35    18    19    1
    36    18    39    1
    37    19    20    1
    38    19    21    1
    39    19    38    1
    40    21    22    1
    41    21    53    1
    42    21    54    1
    43    22    23    1
    44    22    37    1
    45    23    24    1
    46    23    31    1
    47    24    25    2
    48    24    26    1
    49    26    27    1
    50    26    55    1
    51    26    56    1
    52    27    28    1
    53    28    29    2
    54    28    30    1
    55    30    57    1
    56    30    58    1
    57    30    59    1
    58    31    32    1
    59    32    33    2
    60    32    34    1
    61    34    35    1
    62    34    36    1
    63    34    60    1
    64    35    61    1
    65    35    62    1
    66    35    63    1
    67    36    64    1
    68    36    65    1
    69    36    66    1
    70    37    67    1
    71    37    68    1
    72    37    69    1
    73    38    70    1
    74    40    71    1
    75    40    72    1
    76    40    73    1
