@<TRIPOS>MOLECULE
ZINC08101162
 88 88 0 0 0
SMALL
GASTEIGER

@<TRIPOS>ATOM
      1 C          12.4800    1.2331    5.7980 C.3     1  UNL1       -0.0653
      2 C          11.0446    0.7035    5.8089 C.3     1  UNL1       -0.0559
      3 C          10.2685    1.3095    4.6378 C.3     1  UNL1       -0.0533
      4 C           8.8331    0.7800    4.6487 C.3     1  UNL1       -0.0531
      5 C           8.0571    1.3860    3.4777 C.3     1  UNL1       -0.0531
      6 C           6.6217    0.8564    3.4885 C.3     1  UNL1       -0.0531
      7 C           5.8456    1.4625    2.3175 C.3     1  UNL1       -0.0531
      8 C           4.4102    0.9329    2.3284 C.3     1  UNL1       -0.0531
      9 C           3.6341    1.5389    1.1573 C.3     1  UNL1       -0.0529
     10 C           2.1988    1.0094    1.1682 C.3     1  UNL1       -0.0497
     11 C           1.4227    1.6154   -0.0028 C.3     1  UNL1       -0.0155
     12 C          -0.0127    1.0858    0.0080 C.3     1  UNL1        0.1065
     13 H           0.0021   -0.0041    0.0020 H       1  UNL1        0.0735
     14 C          -0.7527    1.5927   -1.2315 C.3     1  UNL1        0.0223
     15 C          -2.1465    0.9639   -1.2860 C.3     1  UNL1        0.1193
     16 H          -2.6570    0.9863   -0.3232 H       1  UNL1        0.0743
     17 C          -3.0065    1.4826   -2.4466 C.3     1  UNL1        0.0934
     18 H          -2.7078    2.4542   -2.8401 H       1  UNL1        0.0450
     19 C          -2.3332    0.2945   -3.1010 C.2     1  UNL1        0.3141
     20 O          -2.0500    0.0232   -4.2438 O.2     1  UNL1       -0.2504
     21 O          -2.1682   -0.3463   -1.9250 O.3     1  UNL1       -0.4601
     22 C          -4.5160    1.3361   -2.2446 C.3     1  UNL1       -0.0366
     23 C          -5.2532    2.0000   -3.4094 C.3     1  UNL1       -0.0522
     24 C          -6.7627    1.8536   -3.2074 C.3     1  UNL1       -0.0530
     25 C          -7.4999    2.5175   -4.3722 C.3     1  UNL1       -0.0533
     26 C          -9.0094    2.3710   -4.1702 C.3     1  UNL1       -0.0559
     27 C          -9.7466    3.0349   -5.3350 C.3     1  UNL1       -0.0653
     28 O          -0.6923    1.5541    1.2026 O.3     1  UNL1       -0.4599
     29 C          -0.6134    0.7757    2.2933 C.2     1  UNL1        0.3279
     30 O           0.0031   -0.2626    2.2512 O.2     1  UNL1       -0.2487
     31 C          -1.2938    1.1967    3.5704 C.3     1  UNL1        0.1204
     32 H          -1.1685    2.2702    3.7120 H       1  UNL1        0.0614
     33 C          -2.7849    0.8638    3.4876 C.3     1  UNL1       -0.0218
     34 C          -3.4975    1.4026    4.7296 C.3     1  UNL1       -0.0445
     35 C          -3.4237    2.9308    4.7372 C.3     1  UNL1       -0.0626
     36 C          -4.9627    0.9628    4.7080 C.3     1  UNL1       -0.0626
     37 N          -0.6959    0.4820    4.7008 N.am    1  UNL1       -0.3050
     38 C          -0.7316   -0.8647    4.7416 C.2     1  UNL1        0.2006
     39 O          -1.2587   -1.4848    3.8424 O.2     1  UNL1       -0.2795
     40 H          12.9623    0.9564    4.8605 H       1  UNL1        0.0230
     41 H          12.4674    2.3188    5.8935 H       1  UNL1        0.0230
     42 H          13.0329    0.8013    6.6323 H       1  UNL1        0.0230
     43 H          10.5623    0.9802    6.7464 H       1  UNL1        0.0263
     44 H          11.0572   -0.3822    5.7133 H       1  UNL1        0.0263
     45 H          10.7508    1.0329    3.7003 H       1  UNL1        0.0265
     46 H          10.2559    2.3953    4.7334 H       1  UNL1        0.0265
     47 H           8.3509    1.0567    5.5862 H       1  UNL1        0.0265
     48 H           8.8457   -0.3058    4.5532 H       1  UNL1        0.0265
     49 H           8.5393    1.1093    2.5401 H       1  UNL1        0.0265
     50 H           8.0445    2.4717    3.5732 H       1  UNL1        0.0265
     51 H           6.1394    1.1331    4.4260 H       1  UNL1        0.0265
     52 H           6.6342   -0.2293    3.3930 H       1  UNL1        0.0265
     53 H           6.3279    1.1858    1.3800 H       1  UNL1        0.0265
     54 H           5.8330    2.5482    2.4130 H       1  UNL1        0.0265
     55 H           3.9279    1.2096    3.2659 H       1  UNL1        0.0265
     56 H           4.4228   -0.1528    2.2328 H       1  UNL1        0.0265
     57 H           4.1164    1.2622    0.2198 H       1  UNL1        0.0265
     58 H           3.6216    2.6247    1.2528 H       1  UNL1        0.0265
     59 H           1.7165    1.2860    2.1057 H       1  UNL1        0.0266
     60 H           2.2113   -0.0764    1.0727 H       1  UNL1        0.0266
     61 H           1.9050    1.3387   -0.9404 H       1  UNL1        0.0301
     62 H           1.4101    2.7011    0.0927 H       1  UNL1        0.0301
     63 H          -0.8452    2.6775   -1.1811 H       1  UNL1        0.0337
     64 H          -0.1944    1.3168   -2.1261 H       1  UNL1        0.0337
     65 H          -4.7764    0.2784   -2.2055 H       1  UNL1        0.0274
     66 H          -4.8059    1.8165   -1.3101 H       1  UNL1        0.0274
     67 H          -4.9928    3.0577   -3.4486 H       1  UNL1        0.0266
     68 H          -4.9634    1.5196   -4.3439 H       1  UNL1        0.0266
     69 H          -7.0231    0.7958   -3.1683 H       1  UNL1        0.0265
     70 H          -7.0526    2.3340   -2.2729 H       1  UNL1        0.0265
     71 H          -7.2395    3.5752   -4.4114 H       1  UNL1        0.0265
     72 H          -7.2101    2.0371   -5.3067 H       1  UNL1        0.0265
     73 H          -9.2698    1.3133   -4.1311 H       1  UNL1        0.0263
     74 H          -9.2993    2.8514   -3.2357 H       1  UNL1        0.0263
     75 H         -10.8220    2.9306   -5.1911 H       1  UNL1        0.0230
     76 H          -9.4862    4.0926   -5.3742 H       1  UNL1        0.0230
     77 H          -9.4568    2.5545   -6.2695 H       1  UNL1        0.0230
     78 H          -3.2109    1.3240    2.5960 H       1  UNL1        0.0291
     79 H          -2.9134   -0.2173    3.4352 H       1  UNL1        0.0291
     80 H          -3.0138    1.0111    5.6245 H       1  UNL1        0.0296
     81 H          -3.9314    3.3147    5.6221 H       1  UNL1        0.0232
     82 H          -2.3798    3.2442    4.7527 H       1  UNL1        0.0232
     83 H          -3.9074    3.3224    3.8423 H       1  UNL1        0.0232
     84 H          -5.0153   -0.1259    4.7026 H       1  UNL1        0.0232
     85 H          -5.4704    1.3467    5.5929 H       1  UNL1        0.0232
     86 H          -5.4464    1.3544    3.8131 H       1  UNL1        0.0232
     87 H          -0.2744    0.9780    5.4200 H       1  UNL1        0.1492
     88 H          -0.2909   -1.3916    5.5749 H       1  UNL1        0.1251
@<TRIPOS>BOND
     1     1     2    1
     2     1    40    1
     3     1    41    1
     4     1    42    1
     5     2     3    1
     6     2    43    1
     7     2    44    1
     8     3     4    1
     9     3    45    1
    10     3    46    1
    11     4     5    1
    12     4    47    1
    13     4    48    1
    14     5     6    1
    15     5    49    1
    16     5    50    1
    17     6     7    1
    18     6    51    1
    19     6    52    1
    20     7     8    1
    21     7    53    1
    22     7    54    1
    23     8     9    1
    24     8    55    1
    25     8    56    1
    26     9    10    1
    27     9    57    1
    28     9    58    1
    29    10    11    1
    30    10    59    1
    31    10    60    1
    32    11    12    1
    33    11    61    1
    34    11    62    1
    35    12    13    1
    36    12    14    1
    37    12    28    1
    38    14    15    1
    39    14    63    1
    40    14    64    1
    41    15    16    1
    42    15    21    1
    43    15    17    1
    44    17    18    1
    45    17    19    1
    46    17    22    1
    47    19    20    2
    48    19    21    1
    49    22    23    1
    50    22    65    1
    51    22    66    1
    52    23    24    1
    53    23    67    1
    54    23    68    1
    55    24    25    1
    56    24    69    1
    57    24    70    1
    58    25    26    1
    59    25    71    1
    60    25    72    1
    61    26    27    1
    62    26    73    1
    63    26    74    1
    64    27    75    1
    65    27    76    1
    66    27    77    1
    67    28    29    1
    68    29    30    2
    69    29    31    1
    70    31    32    1
    71    31    33    1
    72    31    37    1
    73    33    34    1
    74    33    78    1
    75    33    79    1
    76    34    35    1
    77    34    36    1
    78    34    80    1
    79    35    81    1
    80    35    82    1
    81    35    83    1
    82    36    84    1
    83    36    85    1
    84    36    86    1
    85    37    38   am
    86    37    87    1
    87    38    39    2
    88    38    88    1
