@<TRIPOS>MOLECULE
ZINC00057455
 51 53 0 0 0
SMALL
GASTEIGER

@<TRIPOS>ATOM
      1 C          -4.0056   -1.4822    0.0316 C.ar    1  UNL1       -0.0617
      2 C          -3.7102   -0.2738    0.6343 C.ar    1  UNL1       -0.0614
      3 C          -2.4132    0.2045    0.6248 C.ar    1  UNL1       -0.0558
      4 C          -1.4117   -0.5257    0.0127 C.ar    1  UNL1       -0.0157
      5 C          -1.7081   -1.7317   -0.5945 C.ar    1  UNL1       -0.0558
      6 C          -3.0041   -2.2125   -0.5805 C.ar    1  UNL1       -0.0614
      7 C           0.0021   -0.0041    0.0020 C.3     1  UNL1        0.0985
      8 C           0.7421   -0.5109    1.2415 C.3     1  UNL1        0.0208
      9 C          -0.0416   -0.1236    2.4973 C.3     1  UNL1       -0.0289
     10 C           2.0852   -0.1626    3.6819 C.3     1  UNL1       -0.0317
     11 C           2.5023   -0.2879    5.1688 C.3     1  UNL1       -0.0077
     12 C           1.2271    0.1523    5.9239 C.3     1  UNL1       -0.0077
     13 C           0.0753   -0.0550    4.9230 C.3     1  UNL1       -0.0317
     14 C           0.7182   -0.4975   -1.2568 C.3     1  UNL1       -0.0078
     15 C           2.1536    0.0321   -1.2676 C.3     1  UNL1       -0.0473
     16 C           2.8697   -0.4613   -2.5264 C.3     1  UNL1       -0.0527
     17 C           2.1297    0.0455   -3.7660 C.3     1  UNL1       -0.0530
     18 C           0.6944   -0.4841   -3.7551 C.3     1  UNL1       -0.0527
     19 C          -0.0218    0.0093   -2.4963 C.3     1  UNL1       -0.0473
     20 O          -0.0173    1.4248    0.0099 O.3     1  UNL1       -0.3835
     21 H          -5.0189   -1.8557    0.0387 H       1  UNL1        0.0618
     22 H          -4.4927    0.2969    1.1122 H       1  UNL1        0.0618
     23 H          -2.1825    1.1489    1.0953 H       1  UNL1        0.0621
     24 H          -0.9265   -2.3000   -1.0765 H       1  UNL1        0.0621
     25 H          -3.2350   -3.1564   -1.0516 H       1  UNL1        0.0618
     26 H           0.8346   -1.5958    1.1912 H       1  UNL1        0.0348
     27 H           1.7350   -0.0630    1.2804 H       1  UNL1        0.0348
     28 H          -0.1341    0.9613    2.5476 H       1  UNL1        0.0815
     29 H          -1.0345   -0.5716    2.4584 H       1  UNL1        0.0815
     30 H           2.6927   -0.8159    3.0556 H       1  UNL1        0.0814
     31 H           2.1604    0.8720    3.3471 H       1  UNL1        0.0814
     32 H           3.3337    0.3800    5.3938 H       1  UNL1        0.0319
     33 H           2.7579   -1.3192    5.4121 H       1  UNL1        0.0319
     34 H           1.2984    1.2027    6.2063 H       1  UNL1        0.0319
     35 H           1.0771   -0.4684    6.8072 H       1  UNL1        0.0319
     36 H          -0.4058    0.8990    4.7076 H       1  UNL1        0.0814
     37 H          -0.6515   -0.7561    5.3334 H       1  UNL1        0.0814
     38 H           0.7330   -1.5874   -1.2628 H       1  UNL1        0.0332
     39 H           2.1388    1.1220   -1.2617 H       1  UNL1        0.0269
     40 H           2.6808   -0.3290   -0.3846 H       1  UNL1        0.0269
     41 H           2.8845   -1.5512   -2.5324 H       1  UNL1        0.0265
     42 H           3.8923   -0.0840   -2.5342 H       1  UNL1        0.0265
     43 H           2.6399   -0.3060   -4.6628 H       1  UNL1        0.0265
     44 H           2.1150    1.1354   -3.7600 H       1  UNL1        0.0265
     45 H           0.7091   -1.5740   -3.7611 H       1  UNL1        0.0265
     46 H           0.1672   -0.1230   -4.6382 H       1  UNL1        0.0265
     47 H          -1.0444   -0.3679   -2.4886 H       1  UNL1        0.0269
     48 H          -0.0366    1.0992   -2.4903 H       1  UNL1        0.0269
     49 H           0.8606    1.8301    0.0037 H       1  UNL1        0.2106
     50 N           0.6828   -0.6068    3.7112 N.4     1  UNL1        0.2353
     51 H           0.6443   -1.6324    3.7402 H       1  UNL1        0.2033
@<TRIPOS>UNITY_ATOM_ATTR
50 1
charge 1
@<TRIPOS>BOND
     1     1     6   ar
     2     1     2   ar
     3     1    21    1
     4     2     3   ar
     5     2    22    1
     6     3     4   ar
     7     3    23    1
     8     4     5   ar
     9     4     7    1
    10     5     6   ar
    11     5    24    1
    12     6    25    1
    13     7     8    1
    14     7    14    1
    15     7    20    1
    16     8     9    1
    17     8    26    1
    18     8    27    1
    19     9    28    1
    20     9    29    1
    21     9    50    1
    22    10    11    1
    23    10    30    1
    24    10    31    1
    25    10    50    1
    26    11    12    1
    27    11    32    1
    28    11    33    1
    29    12    13    1
    30    12    34    1
    31    12    35    1
    32    13    36    1
    33    13    37    1
    34    13    50    1
    35    14    19    1
    36    14    15    1
    37    14    38    1
    38    15    16    1
    39    15    39    1
    40    15    40    1
    41    16    17    1
    42    16    41    1
    43    16    42    1
    44    17    18    1
    45    17    43    1
    46    17    44    1
    47    18    19    1
    48    18    45    1
    49    18    46    1
    50    19    47    1
    51    19    48    1
    52    20    49    1
    53    50    51    1
