@<TRIPOS>MOLECULE
ZINC03830815
 55 57 0 0 0
SMALL
GASTEIGER

@<TRIPOS>ATOM
      1 C          -4.0034   -1.5082    3.1123 C.3     1  UNL1       -0.0584
      2 C          -4.4304   -1.6535    1.6503 C.3     1  UNL1        0.0046
      3 C          -3.2981   -1.2278    0.7516 C.ar    1  UNL1        0.1338
      4 N          -2.1412   -0.8043    1.1472 N.ar    1  UNL1       -0.1537
      5 N          -1.3723   -0.5112    0.0124 N.ar    1  UNL1       -0.2127
      6 C          -2.1349   -0.7771   -1.0686 C.ar    1  UNL1        0.3467
      7 O          -1.8074   -0.6394   -2.2338 O.2     1  UNL1       -0.2448
      8 N          -3.3250   -1.2261   -0.6217 N.ar    1  UNL1       -0.2795
      9 C          -4.4560   -1.6358   -1.4579 C.3     1  UNL1        0.0264
     10 C          -5.3484   -0.4250   -1.7376 C.3     1  UNL1       -0.0469
     11 C           0.0021   -0.0041    0.0020 C.3     1  UNL1        0.0516
     12 C          -0.0187    1.5258    0.0104 C.3     1  UNL1        0.0072
     13 C           1.4167    2.0553   -0.0004 C.3     1  UNL1       -0.0301
     14 C           0.8241    4.0500   -1.2394 C.3     1  UNL1       -0.0158
     15 C           0.7479    5.5765   -1.1589 C.3     1  UNL1        0.0525
     16 N           2.0940    6.1202   -0.9305 N.pl3   1  UNL1       -0.3197
     17 C           2.6666    5.5944    0.3165 C.3     1  UNL1        0.0525
     18 C           2.7429    4.0679    0.2360 C.3     1  UNL1       -0.0158
     19 C           2.0750    7.5167   -0.9229 C.ar    1  UNL1        0.0314
     20 C           2.5560    8.2134    0.1789 C.ar    1  UNL1       -0.0406
     21 C           2.5410    9.5942    0.1817 C.ar    1  UNL1       -0.0586
     22 C           2.0378   10.2843   -0.9060 C.ar    1  UNL1       -0.0433
     23 C           1.5530    9.5940   -2.0030 C.ar    1  UNL1        0.0427
     24 C           1.5702    8.2117   -2.0140 C.ar    1  UNL1       -0.0223
     25 CL          0.9223   10.4645   -3.3661 Cl      1  UNL1       -0.0835
     26 H          -4.8224   -1.8161    3.7624 H       1  UNL1        0.0234
     27 H          -3.1335   -2.1373    3.3010 H       1  UNL1        0.0234
     28 H          -3.7501   -0.4676    3.3151 H       1  UNL1        0.0234
     29 H          -5.3003   -1.0244    1.4616 H       1  UNL1        0.0341
     30 H          -4.6837   -2.6941    1.4475 H       1  UNL1        0.0341
     31 H          -4.0842   -2.0385   -2.4001 H       1  UNL1        0.0491
     32 H          -5.0335   -2.4006   -0.9386 H       1  UNL1        0.0491
     33 H          -6.1899   -0.7298   -2.3598 H       1  UNL1        0.0247
     34 H          -5.7203   -0.0223   -0.7954 H       1  UNL1        0.0247
     35 H          -4.7709    0.3398   -2.2569 H       1  UNL1        0.0247
     36 H           0.5123   -0.3556   -0.8948 H       1  UNL1        0.0512
     37 H           0.5293   -0.3651    0.8851 H       1  UNL1        0.0512
     38 H          -0.5459    1.8868   -0.8726 H       1  UNL1        0.0335
     39 H          -0.5289    1.8773    0.9072 H       1  UNL1        0.0335
     40 H           1.9439    1.6943    0.8826 H       1  UNL1        0.0815
     41 H           1.9269    1.7038   -0.8972 H       1  UNL1        0.0815
     42 H           1.4555    3.7612   -2.0797 H       1  UNL1        0.0830
     43 H          -0.1772    3.6428   -1.3798 H       1  UNL1        0.0830
     44 H           0.0947    5.8650   -0.3354 H       1  UNL1        0.0516
     45 H           0.3502    5.9709   -2.0939 H       1  UNL1        0.0516
     46 H           2.0352    5.8831    1.1568 H       1  UNL1        0.0516
     47 H           3.6679    6.0016    0.4569 H       1  UNL1        0.0516
     48 H           3.1404    3.6738    1.1712 H       1  UNL1        0.0830
     49 H           3.3962    3.7790   -0.5873 H       1  UNL1        0.0830
     50 H           2.9451    7.6755    1.0307 H       1  UNL1        0.0636
     51 H           2.9183   10.1359    1.0365 H       1  UNL1        0.0619
     52 H           2.0229   11.3642   -0.8991 H       1  UNL1        0.0632
     53 H           1.1918    7.6731   -2.8702 H       1  UNL1        0.0651
     54 N           1.3807    3.5331    0.0287 N.4     1  UNL1        0.2375
     55 H           0.7811    3.8370    0.8048 H       1  UNL1        0.2034
@<TRIPOS>UNITY_ATOM_ATTR
54 1
charge 1
@<TRIPOS>BOND
     1     1     2    1
     2     1    26    1
     3     1    27    1
     4     1    28    1
     5     2     3    1
     6     2    29    1
     7     2    30    1
     8     3     8   ar
     9     3     4   ar
    10     4     5   ar
    11     5     6   ar
    12     5    11    1
    13     6     7    2
    14     6     8   ar
    15     8     9    1
    16     9    10    1
    17     9    31    1
    18     9    32    1
    19    10    33    1
    20    10    34    1
    21    10    35    1
    22    11    12    1
    23    11    36    1
    24    11    37    1
    25    12    13    1
    26    12    38    1
    27    12    39    1
    28    13    40    1
    29    13    41    1
    30    13    54    1
    31    14    15    1
    32    14    42    1
    33    14    43    1
    34    14    54    1
    35    15    16    1
    36    15    44    1
    37    15    45    1
    38    16    17    1
    39    16    19    1
    40    17    18    1
    41    17    46    1
    42    17    47    1
    43    18    48    1
    44    18    49    1
    45    18    54    1
    46    19    24   ar
    47    19    20   ar
    48    20    21   ar
    49    20    50    1
    50    21    22   ar
    51    21    51    1
    52    22    23   ar
    53    22    52    1
    54    23    24   ar
    55    23    25    1
    56    24    53    1
    57    54    55    1
