@<TRIPOS>MOLECULE
ZINC03830509
 41 43 0 0 0
SMALL
GASTEIGER

@<TRIPOS>ATOM
      1 C           8.2813   10.1899   -8.7248 C.3     1  UNL1        0.0332
      2 C           7.0125   10.2962   -7.9185 C.2     1  UNL1        0.3043
      3 O           6.2300   11.1901   -8.1387 O.2     1  UNL1       -0.2512
      4 O           6.7518    9.3979   -6.9558 O.3     1  UNL1       -0.4603
      5 C           5.4617    9.4940   -6.2964 C.3     1  UNL1        0.1164
      6 C           5.2990    8.3403   -5.3406 C.2     1  UNL1        0.0004
      7 CA          4.1213    8.2483   -4.7457 C.2     1  UNL1        0.0631
      8 N           3.8404    7.1800   -3.8715 N.am    1  UNL1       -0.2533
      9 C           4.8561    6.3088   -3.1925 C.3     1  UNL1        0.1041
     10 H           5.3017    6.6952   -2.2759 H       1  UNL1        0.0644
     11 CA          3.6609    5.3866   -3.0165 C.3     1  UNL1        0.1283
     12 HA          3.6578    4.5474   -3.7121 H       1  UNL1        0.0622
     13 C           2.7542    6.5199   -3.4426 C.2     1  UNL1        0.2438
     14 O           1.5614    6.7375   -3.4106 O.2     1  UNL1       -0.2731
     15 N           3.4517    4.9679   -1.6283 N.am    1  UNL1       -0.3015
     16 C           2.7962    3.8208   -1.3618 C.2     1  UNL1        0.2185
     17 O           2.3796    3.1352   -2.2713 O.2     1  UNL1       -0.2754
     18 C           2.5810    3.3902    0.0662 C.3     1  UNL1        0.0553
     19 C           1.8285    2.0847    0.0893 C.ar    1  UNL1       -0.0015
     20 C           2.3142    0.8193    0.0811 C.ar    1  UNL1       -0.0511
     21 C           1.4262   -0.2397    0.1063 C.ar    1  UNL1       -0.0545
     22 C           0.0959    0.0186    0.1385 C.ar    1  UNL1       -0.0241
     23 S           0.0661    1.8036    0.1338 S.2     1  UNL1       -0.1011
     24 S           6.0384    5.8308   -4.4914 S.3     1  UNL1       -0.1310
     25 C           6.4894    7.4501   -5.1884 C.3     1  UNL1        0.0219
     26 C           3.0931    9.2737   -4.9995 C.2     1  UNL1        0.0860
     27 O           1.9753    9.1394   -4.5424 O.co2   1  UNL1       -0.5433
     28 H           8.0806    9.6462   -9.6479 H       1  UNL1        0.0342
     29 H           8.6449   11.1893   -8.9635 H       1  UNL1        0.0342
     30 H           9.0359    9.6572   -8.1461 H       1  UNL1        0.0342
     31 H           4.6686    9.4616   -7.0434 H       1  UNL1        0.0746
     32 H           5.4041   10.4329   -5.7458 H       1  UNL1        0.0746
     33 H           3.7849    5.5164   -0.9009 H       1  UNL1        0.1495
     34 H           2.0045    4.1512    0.5922 H       1  UNL1        0.0412
     35 H           3.5461    3.2620    0.5564 H       1  UNL1        0.0412
     36 H           3.3791    0.6411    0.0549 H       1  UNL1        0.0626
     37 H           1.7869   -1.2577    0.1002 H       1  UNL1        0.0623
     38 H          -0.7313   -0.6754    0.1608 H       1  UNL1        0.0693
     39 H           6.9482    7.3006   -6.1658 H       1  UNL1        0.0424
     40 H           7.2111    7.9320   -4.5289 H       1  UNL1        0.0424
     41 OXT         3.3928   10.3601   -5.7386 O.co2   1  UNL1       -0.5433
@<TRIPOS>UNITY_ATOM_ATTR
41 1
charge -1
@<TRIPOS>BOND
     1     1     2    1
     2     1    28    1
     3     1    29    1
     4     1    30    1
     5     2     3    2
     6     2     4    1
     7     4     5    1
     8     5     6    1
     9     5    31    1
    10     5    32    1
    11     6    25    1
    12     6     7    2
    13     7     8    1
    14     7    26    1
    15     8    13   am
    16     8     9    1
    17     9    10    1
    18     9    11    1
    19     9    24    1
    20    11    12    1
    21    11    13    1
    22    11    15    1
    23    13    14    2
    24    15    16   am
    25    15    33    1
    26    16    17    2
    27    16    18    1
    28    18    19    1
    29    18    34    1
    30    18    35    1
    31    19    23   ar
    32    19    20   ar
    33    20    21   ar
    34    20    36    1
    35    21    22   ar
    36    21    37    1
    37    22    23   ar
    38    22    38    1
    39    24    25    1
    40    25    39    1
    41    25    40    1
    42    26    27   ar
    43    26    41   ar
