@<TRIPOS>MOLECULE
ZINC03831605
 98 103 0 0 0
SMALL
GASTEIGER

@<TRIPOS>ATOM
      1 C           0.2483    0.4457   -1.8197 C.3     1  UNL1        0.0332
      2 C           1.1968    0.4353   -0.6486 C.2     1  UNL1        0.3044
      3 O           1.3400   -0.5715    0.0039 O.2     1  UNL1       -0.2512
      4 O           1.8825    1.5445   -0.3305 O.3     1  UNL1       -0.4558
      5 C           2.7780    1.4616    0.8098 C.3     1  UNL1        0.1455
      6 H           3.1471    0.4358    0.8929 H       1  UNL1        0.0791
      7 C           2.0108    1.8182    2.0875 C.3     1  UNL1       -0.0070
      8 C           1.5730    3.2723    2.0020 C.3     1  UNL1       -0.0316
      9 H           0.9885    3.3739    1.0728 H       1  UNL1        0.0307
     10 C           0.6763    3.7057    3.1516 C.3     1  UNL1       -0.0493
     11 C           0.0215    5.0461    2.7767 C.3     1  UNL1       -0.0494
     12 C           0.8181    5.6893    1.6490 C.3     1  UNL1       -0.0341
     13 H           0.6534    5.0710    0.7443 H       1  UNL1        0.0306
     14 C           2.3159    5.6382    1.9529 C.3     1  UNL1       -0.0321
     15 H           2.4918    5.9654    2.9782 H       1  UNL1        0.0309
     16 C           2.7924    4.1882    1.8858 C.3     1  UNL1       -0.0208
     17 C           3.5233    3.8666    0.5882 C.3     1  UNL1       -0.0003
     18 C           3.9621    2.3984    0.5932 C.3     1  UNL1        0.0175
     19 H           4.7089    2.2276    1.3684 H       1  UNL1        0.0888
     20 C           5.0474    0.6960   -0.7427 C.3     1  UNL1       -0.0315
     21 C           5.5475    0.3643   -2.1505 C.3     1  UNL1       -0.0123
     22 C           6.6864    1.3186   -2.5204 C.3     1  UNL1       -0.0434
     23 C           6.1836    2.7618   -2.4253 C.3     1  UNL1       -0.0123
     24 C           5.6651    3.0240   -1.0096 C.3     1  UNL1       -0.0315
     25 C           3.7382    3.9647    3.0690 C.3     1  UNL1       -0.0589
     26 C           3.0792    6.5383    0.9926 C.3     1  UNL1       -0.0488
     27 C           2.7205    8.0159    1.2016 C.3     1  UNL1       -0.0435
     28 C           1.3564    8.1625    1.8293 C.3     1  UNL1        0.0136
     29 C           0.3902    7.0814    1.3033 C.3     1  UNL1       -0.0238
     30 H           0.3549    7.1618    0.1976 H       1  UNL1        0.0312
     31 C          -0.9677    7.5576    1.8263 C.3     1  UNL1       -0.0024
     32 C          -0.8702    9.1051    1.7861 C.3     1  UNL1        0.0193
     33 H          -1.0962    9.5215    2.7658 H       1  UNL1        0.0889
     34 C           0.5925    9.4356    1.3829 C.3     1  UNL1        0.1508
     35 H           0.9615   10.3018    1.9247 H       1  UNL1        0.0797
     36 O           0.7031    9.6201   -0.0496 O.3     1  UNL1       -0.4553
     37 C           1.1366   10.8159   -0.4784 C.2     1  UNL1        0.3044
     38 O           1.3033   11.7163    0.3099 O.2     1  UNL1       -0.2512
     39 C           1.4154   11.0354   -1.9431 C.3     1  UNL1        0.0332
     40 N          -1.8009    9.6393    0.7829 N.4     1  UNL1        0.2459
     41 C          -1.6382    8.9013   -0.4754 C.3     1  UNL1       -0.0299
     42 C          -2.6608    9.3991   -1.4991 C.3     1  UNL1       -0.0123
     43 C          -2.4383   10.8934   -1.7495 C.3     1  UNL1       -0.0434
     44 C          -2.5368   11.6443   -0.4185 C.3     1  UNL1       -0.0123
     45 C          -1.5187   11.0632    0.5651 C.3     1  UNL1       -0.0299
     46 C          -3.1800    9.4829    1.2641 C.3     1  UNL1       -0.0409
     47 C           1.4436    8.1898    3.3580 C.3     1  UNL1       -0.0557
     48 H           0.7836    0.1541   -2.7234 H       1  UNL1        0.0342
     49 H          -0.5639   -0.2576   -1.6357 H       1  UNL1        0.0342
     50 H          -0.1607    1.4479   -1.9471 H       1  UNL1        0.0342
     51 H           1.1171    1.1829    2.1496 H       1  UNL1        0.0306
     52 H           2.6216    1.6331    2.9638 H       1  UNL1        0.0306
     53 H          -0.1085    2.9580    3.3002 H       1  UNL1        0.0268
     54 H           1.2435    3.8169    4.0707 H       1  UNL1        0.0268
     55 H          -1.0004    4.8631    2.4462 H       1  UNL1        0.0268
     56 H           0.0146    5.6953    3.6491 H       1  UNL1        0.0268
     57 H           4.4050    4.5072    0.4947 H       1  UNL1        0.0326
     58 H           2.8618    4.0496   -0.2619 H       1  UNL1        0.0326
     59 H           5.8610    0.5679   -0.0287 H       1  UNL1        0.0814
     60 H           4.2269    0.0276   -0.4818 H       1  UNL1        0.0814
     61 H           4.7308    0.4789   -2.8632 H       1  UNL1        0.0317
     62 H           5.9110   -0.6630   -2.1755 H       1  UNL1        0.0317
     63 H           7.0166    1.1142   -3.5388 H       1  UNL1        0.0269
     64 H           7.5196    1.1771   -1.8320 H       1  UNL1        0.0269
     65 H           5.3769    2.9141   -3.1424 H       1  UNL1        0.0317
     66 H           7.0013    3.4479   -2.6463 H       1  UNL1        0.0317
     67 H           5.2932    4.0464   -0.9426 H       1  UNL1        0.0814
     68 H           6.4759    2.8849   -0.2945 H       1  UNL1        0.0814
     69 H           4.6062    4.6163    2.9683 H       1  UNL1        0.0235
     70 H           3.2176    4.1942    3.9987 H       1  UNL1        0.0235
     71 H           4.0641    2.9247    3.0822 H       1  UNL1        0.0235
     72 H           4.1548    6.4080    1.1458 H       1  UNL1        0.0268
     73 H           2.8432    6.2554   -0.0377 H       1  UNL1        0.0268
     74 H           3.4751    8.4843    1.8465 H       1  UNL1        0.0272
     75 H           2.7446    8.5311    0.2335 H       1  UNL1        0.0272
     76 H          -1.1367    7.2123    2.8414 H       1  UNL1        0.0324
     77 H          -1.7639    7.2152    1.1667 H       1  UNL1        0.0324
     78 H           0.5237   11.4341   -2.4269 H       1  UNL1        0.0342
     79 H           2.2365   11.7435   -2.0545 H       1  UNL1        0.0342
     80 H           1.6875   10.0874   -2.4072 H       1  UNL1        0.0342
     81 H          -0.6313    9.0600   -0.8617 H       1  UNL1        0.0815
     82 H          -1.7936    7.8376   -0.2949 H       1  UNL1        0.0815
     83 H          -3.6681    9.2406   -1.1139 H       1  UNL1        0.0317
     84 H          -2.5379    8.8512   -2.4333 H       1  UNL1        0.0317
     85 H          -3.1997   11.2654   -2.4350 H       1  UNL1        0.0269
     86 H          -1.4504   11.0484   -2.1832 H       1  UNL1        0.0269
     87 H          -3.5415   11.5324   -0.0109 H       1  UNL1        0.0317
     88 H          -2.3249   12.7013   -0.5796 H       1  UNL1        0.0317
     89 H          -1.5860   11.5957    1.5138 H       1  UNL1        0.0815
     90 H          -0.5146   11.1758    0.1562 H       1  UNL1        0.0815
     91 H          -3.3056   10.0381    2.1936 H       1  UNL1        0.0778
     92 H          -3.8720    9.8675    0.5148 H       1  UNL1        0.0778
     93 H          -3.3856    8.4272    1.4407 H       1  UNL1        0.0778
     94 H           1.9494    9.1012    3.6768 H       1  UNL1        0.0236
     95 H           0.4388    8.1655    3.7798 H       1  UNL1        0.0236
     96 H           2.0046    7.3223    3.7055 H       1  UNL1        0.0236
     97 N           4.5551    2.0899   -0.7244 N.4     1  UNL1        0.2400
     98 H           3.8346    2.1981   -1.4479 H       1  UNL1        0.2037
@<TRIPOS>UNITY_ATOM_ATTR
40 1
charge 1
97 1
charge 1
@<TRIPOS>BOND
     1     1     2    1
     2     1    48    1
     3     1    49    1
     4     1    50    1
     5     2     3    2
     6     2     4    1
     7     4     5    1
     8     5     6    1
     9     5    18    1
    10     5     7    1
    11     7     8    1
    12     7    51    1
    13     7    52    1
    14     8     9    1
    15     8    16    1
    16     8    10    1
    17    10    11    1
    18    10    53    1
    19    10    54    1
    20    11    12    1
    21    11    55    1
    22    11    56    1
    23    12    13    1
    24    12    29    1
    25    12    14    1
    26    14    15    1
    27    14    16    1
    28    14    26    1
    29    16    17    1
    30    16    25    1
    31    17    18    1
    32    17    57    1
    33    17    58    1
    34    18    19    1
    35    18    97    1
    36    20    21    1
    37    20    59    1
    38    20    60    1
    39    20    97    1
    40    21    22    1
    41    21    61    1
    42    21    62    1
    43    22    23    1
    44    22    63    1
    45    22    64    1
    46    23    24    1
    47    23    65    1
    48    23    66    1
    49    24    67    1
    50    24    68    1
    51    24    97    1
    52    25    69    1
    53    25    70    1
    54    25    71    1
    55    26    27    1
    56    26    72    1
    57    26    73    1
    58    27    28    1
    59    27    74    1
    60    27    75    1
    61    28    34    1
    62    28    29    1
    63    28    47    1
    64    29    30    1
    65    29    31    1
    66    31    32    1
    67    31    76    1
    68    31    77    1
    69    32    33    1
    70    32    34    1
    71    32    40    1
    72    34    35    1
    73    34    36    1
    74    36    37    1
    75    37    38    2
    76    37    39    1
    77    39    78    1
    78    39    79    1
    79    39    80    1
    80    40    45    1
    81    40    41    1
    82    40    46    1
    83    41    42    1
    84    41    81    1
    85    41    82    1
    86    42    43    1
    87    42    83    1
    88    42    84    1
    89    43    44    1
    90    43    85    1
    91    43    86    1
    92    44    45    1
    93    44    87    1
    94    44    88    1
    95    45    89    1
    96    45    90    1
    97    46    91    1
    98    46    92    1
    99    46    93    1
   100    47    94    1
   101    47    95    1
   102    47    96    1
   103    97    98    1
