@<TRIPOS>MOLECULE
ZINC00002165
 32 34 0 0 0
SMALL
GASTEIGER

@<TRIPOS>ATOM
      1 C           2.2628    1.0530   -0.4349 C.ar    1  UNL1       -0.0612
      2 C           2.2335   -0.2402    0.0532 C.ar    1  UNL1       -0.0604
      3 C           1.0502   -0.7731    0.5283 C.ar    1  UNL1       -0.0429
      4 C          -0.1053   -0.0120    0.5157 C.ar    1  UNL1        0.0492
      5 C          -0.0752    1.2820    0.0276 C.ar    1  UNL1        0.0154
      6 C           1.1089    1.8138   -0.4477 C.ar    1  UNL1       -0.0521
      7 C          -1.3318    2.1140    0.0199 C.3     1  UNL1       -0.0042
      8 C          -3.0521    2.9227    1.5205 C.3     1  UNL1       -0.0267
      9 C          -3.4128    2.9751    3.0148 C.3     1  UNL1        0.0194
     10 C          -2.3407    3.7448    3.7148 C.ar    1  UNL1        0.0030
     11 C          -1.1181    4.0770    3.2135 C.ar    1  UNL1        0.0074
     12 C          -0.2785    4.8054    4.0527 C.ar    1  UNL1       -0.0462
     13 C          -0.6929    5.1454    5.2956 C.ar    1  UNL1       -0.0236
     14 S          -2.3323    4.4356    5.3448 S.2     1  UNL1       -0.1009
     15 C          -0.7418    3.6459    1.7990 C.3     1  UNL1       -0.0048
     16 CL         -1.5919   -0.6803    1.1134 Cl      1  UNL1       -0.0831
     17 H           3.1878    1.4690   -0.8061 H       1  UNL1        0.0618
     18 H           3.1355   -0.8340    0.0636 H       1  UNL1        0.0618
     19 H           1.0273   -1.7834    0.9092 H       1  UNL1        0.0632
     20 H           1.1325    2.8241   -0.8288 H       1  UNL1        0.0623
     21 H          -1.1869    2.9849   -0.6194 H       1  UNL1        0.0868
     22 H          -2.1603    1.5171   -0.3615 H       1  UNL1        0.0868
     23 H          -3.2199    3.9008    1.0698 H       1  UNL1        0.0818
     24 H          -3.6711    2.1772    1.0212 H       1  UNL1        0.0818
     25 H          -3.4645    1.9636    3.4178 H       1  UNL1        0.0370
     26 H          -4.3725    3.4747    3.1470 H       1  UNL1        0.0370
     27 H           0.7032    5.0993    3.7116 H       1  UNL1        0.0627
     28 H          -0.1689    5.7010    6.0593 H       1  UNL1        0.0693
     29 H           0.2910    3.2977    1.7853 H       1  UNL1        0.0867
     30 H          -0.8531    4.4877    1.1155 H       1  UNL1        0.0867
     31 N          -1.6281    2.5254    1.4060 N.4     1  UNL1        0.2421
     32 H          -1.4550    1.7311    2.0333 H       1  UNL1        0.2040
@<TRIPOS>UNITY_ATOM_ATTR
31 1
charge 1
@<TRIPOS>BOND
     1     1     6   ar
     2     1     2   ar
     3     1    17    1
     4     2     3   ar
     5     2    18    1
     6     3     4   ar
     7     3    19    1
     8     4     5   ar
     9     4    16    1
    10     5     6   ar
    11     5     7    1
    12     6    20    1
    13     7    21    1
    14     7    22    1
    15     7    31    1
    16     8     9    1
    17     8    23    1
    18     8    24    1
    19     8    31    1
    20     9    10    1
    21     9    25    1
    22     9    26    1
    23    10    14   ar
    24    10    11   ar
    25    11    12   ar
    26    11    15    1
    27    12    13   ar
    28    12    27    1
    29    13    14   ar
    30    13    28    1
    31    15    29    1
    32    15    30    1
    33    15    31    1
    34    31    32    1
