@<TRIPOS>MOLECULE
ZINC03831300
 58 59 0 0 0
SMALL
GASTEIGER

@<TRIPOS>ATOM
      1 C           1.8432   -1.8324   -7.6771 C.3     1  UNL1       -0.0651
      2 C           1.6661   -1.3059   -6.2515 C.3     1  UNL1       -0.0503
      3 C           2.5434   -0.0683   -6.0522 C.3     1  UNL1        0.0006
      4 C           2.4622    0.3848   -4.5931 C.3     1  UNL1        0.0767
      5 H           2.7685   -0.4332   -3.9411 H       1  UNL1        0.0969
      6 C           3.3758    1.5646   -4.3819 C.2     1  UNL1        0.3560
      7 O           2.9228    2.6199   -4.0065 O.2     1  UNL1       -0.2444
      8 O           4.6928    1.4430   -4.6109 O.3     1  UNL1       -0.4610
      9 C           5.5124    2.6204   -4.3866 C.3     1  UNL1        0.0899
     10 C           6.9738    2.2913   -4.6976 C.3     1  UNL1       -0.0306
     11 CA          0.7886    0.5632   -2.8525 C.3     1  UNL1        0.0531
     12 HA          1.6715    0.8053   -2.2610 H       1  UNL1        0.0947
     13 CB          0.4044   -0.8995   -2.6202 C.3     1  UNL1       -0.0129
     14 C          -0.3537    1.4545   -2.4381 C.2     1  UNL1        0.2643
     15 O          -1.1377    1.8615   -3.2692 O.2     1  UNL1       -0.2694
     16 N          -0.5041    1.7994   -1.1439 N.am    1  UNL1       -0.2853
     17 C          -1.5400    2.6829   -0.6023 C.3     1  UNL1        0.0297
     18 H          -2.4058    2.0770   -0.3351 H       1  UNL1        0.0503
     19 C          -1.9910    3.7377   -1.5870 C.3     1  UNL1       -0.0340
     20 C          -0.8672    4.7287   -1.8904 C.3     1  UNL1       -0.0514
     21 C          -0.4405    5.3938   -0.5775 C.3     1  UNL1       -0.0527
     22 C           0.1235    4.3225    0.3527 C.3     1  UNL1       -0.0485
     23 C          -0.9450    3.2794    0.6866 C.3     1  UNL1       -0.0203
     24 H          -1.7090    3.6676    1.3602 H       1  UNL1        0.0319
     25 C          -0.1878    2.0369    1.2556 C.3     1  UNL1       -0.0245
     26 CA          0.3443    1.3540   -0.0239 C.3     1  UNL1        0.0662
     27 HA          0.2823    0.2707    0.0806 H       1  UNL1        0.0562
     28 C           1.7736    1.7646   -0.2681 C.2     1  UNL1        0.0622
     29 O           2.0664    2.3630   -1.2760 O.co2   1  UNL1       -0.5479
     30 H           1.5496   -1.0606   -8.3885 H       1  UNL1        0.0230
     31 H           2.8879   -2.0977   -7.8392 H       1  UNL1        0.0230
     32 H           1.2181   -2.7141   -7.8190 H       1  UNL1        0.0230
     33 H           1.9596   -2.0777   -5.5400 H       1  UNL1        0.0265
     34 H           0.6214   -1.0406   -6.0893 H       1  UNL1        0.0265
     35 H           2.1931    0.7338   -6.7018 H       1  UNL1        0.0325
     36 H           3.5766   -0.3117   -6.3002 H       1  UNL1        0.0325
     37 H           5.1752    3.4272   -5.0375 H       1  UNL1        0.0694
     38 H           5.4236    2.9320   -3.3459 H       1  UNL1        0.0694
     39 H           7.0626    1.9798   -5.7383 H       1  UNL1        0.0262
     40 H           7.5891    3.1752   -4.5292 H       1  UNL1        0.0262
     41 H           7.3110    1.4846   -4.0468 H       1  UNL1        0.0262
     42 HB1        -0.5220   -1.1204   -3.1504 H       1  UNL1        0.0289
     43 HB2         1.1988   -1.5471   -2.9911 H       1  UNL1        0.0289
     44 HB3         0.2627   -1.0728   -1.5534 H       1  UNL1        0.0289
     45 H          -2.2995    3.2530   -2.5132 H       1  UNL1        0.0283
     46 H          -2.8399    4.2778   -1.1678 H       1  UNL1        0.0283
     47 H          -1.2249    5.4871   -2.5868 H       1  UNL1        0.0266
     48 H          -0.0194    4.2005   -2.3268 H       1  UNL1        0.0266
     49 H          -1.3039    5.8667   -0.1096 H       1  UNL1        0.0265
     50 H           0.3252    6.1430   -0.7791 H       1  UNL1        0.0265
     51 H           0.4673    4.7920    1.2744 H       1  UNL1        0.0269
     52 H           0.9651    3.8309   -0.1353 H       1  UNL1        0.0269
     53 H          -0.8730    1.3781    1.7891 H       1  UNL1        0.0290
     54 H           0.6354    2.3444    1.9005 H       1  UNL1        0.0290
     55 N           1.0740    0.7761   -4.2840 N.4     1  UNL1        0.2457
     56 H1          0.4290    0.2085   -4.8461 H       1  UNL1        0.2030
     57 H2          0.9433    1.7688   -4.5114 H       1  UNL1        0.2030
     58 OXT         2.7213    1.4655    0.6342 O.co2   1  UNL1       -0.5479
@<TRIPOS>UNITY_ATOM_ATTR
55 1
charge 1
58 1
charge -1
@<TRIPOS>BOND
     1     1     2    1
     2     1    30    1
     3     1    31    1
     4     1    32    1
     5     2     3    1
     6     2    33    1
     7     2    34    1
     8     3     4    1
     9     3    35    1
    10     3    36    1
    11     4     5    1
    12     4     6    1
    13     4    55    1
    14     6     7    2
    15     6     8    1
    16     8     9    1
    17     9    10    1
    18     9    37    1
    19     9    38    1
    20    10    39    1
    21    10    40    1
    22    10    41    1
    23    11    12    1
    24    11    13    1
    25    11    14    1
    26    11    55    1
    27    13    42    1
    28    13    43    1
    29    13    44    1
    30    14    15    2
    31    14    16   am
    32    16    26    1
    33    16    17    1
    34    17    18    1
    35    17    23    1
    36    17    19    1
    37    19    20    1
    38    19    45    1
    39    19    46    1
    40    20    21    1
    41    20    47    1
    42    20    48    1
    43    21    22    1
    44    21    49    1
    45    21    50    1
    46    22    23    1
    47    22    51    1
    48    22    52    1
    49    23    24    1
    50    23    25    1
    51    25    26    1
    52    25    53    1
    53    25    54    1
    54    26    27    1
    55    26    28    1
    56    28    29   ar
    57    28    58   ar
    58    55    56    1
    59    55    57    1
