@<TRIPOS>MOLECULE
ZINC03635748
 34 35 0 0 0
SMALL
GASTEIGER

@<TRIPOS>ATOM
      1 C          -0.7288    1.5792    1.2668 C.3     1  UNL1       -0.0306
      2 C          -0.0127    1.0858    0.0080 C.3     1  UNL1        0.0900
      3 O          -0.7150    1.5668   -1.1683 O.3     1  UNL1       -0.4604
      4 C          -0.2090    1.2178   -2.3689 C.2     1  UNL1        0.3574
      5 O           0.7920    0.5301   -2.4302 O.2     1  UNL1       -0.2432
      6 C          -0.8658    1.6675   -3.5998 C.ar    1  UNL1        0.1468
      7 C          -0.4765    1.3980   -4.8828 C.ar    1  UNL1        0.0598
      8 N          -1.3422    1.9919   -5.7039 N.ar    1  UNL1       -0.2432
      9 C          -2.2537    2.6196   -5.0052 C.ar    1  UNL1        0.0970
     10 N          -2.0054    2.4435   -3.6954 N.ar    1  UNL1       -0.3178
     11 C          -2.7921    2.9766   -2.5804 C.3     1  UNL1        0.0582
     12 H          -2.3413    2.6677   -1.6373 H       1  UNL1        0.0575
     13 C          -2.8163    4.5044   -2.6579 C.3     1  UNL1       -0.0400
     14 C          -4.2007    2.4471   -2.6611 C.ar    1  UNL1       -0.0249
     15 C          -4.9782    2.7175   -3.7716 C.ar    1  UNL1       -0.0566
     16 C          -6.2688    2.2282   -3.8476 C.ar    1  UNL1       -0.0614
     17 C          -6.7852    1.4765   -2.8088 C.ar    1  UNL1       -0.0617
     18 C          -6.0093    1.2101   -1.6961 C.ar    1  UNL1       -0.0614
     19 C          -4.7173    1.6958   -1.6221 C.ar    1  UNL1       -0.0566
     20 H          -0.7436    2.6691    1.2728 H       1  UNL1        0.0262
     21 H          -1.7514    1.2020    1.2746 H       1  UNL1        0.0262
     22 H          -0.2017    1.2182    2.1499 H       1  UNL1        0.0262
     23 H           0.0021   -0.0041    0.0020 H       1  UNL1        0.0695
     24 H           1.0099    1.4631    0.0003 H       1  UNL1        0.0695
     25 H           0.3792    0.8089   -5.1779 H       1  UNL1        0.0853
     26 H          -3.0769    3.1856   -5.4154 H       1  UNL1        0.1029
     27 H          -3.4016    4.9010   -1.8283 H       1  UNL1        0.0253
     28 H          -1.7974    4.8874   -2.5995 H       1  UNL1        0.0253
     29 H          -3.2671    4.8133   -3.6010 H       1  UNL1        0.0253
     30 H          -4.5761    3.3083   -4.5814 H       1  UNL1        0.0621
     31 H          -6.8748    2.4361   -4.7170 H       1  UNL1        0.0618
     32 H          -7.7947    1.0970   -2.8666 H       1  UNL1        0.0618
     33 H          -6.4128    0.6228   -0.8845 H       1  UNL1        0.0618
     34 H          -4.1112    1.4879   -0.7526 H       1  UNL1        0.0621
@<TRIPOS>BOND
     1     1     2    1
     2     1    20    1
     3     1    21    1
     4     1    22    1
     5     2     3    1
     6     2    23    1
     7     2    24    1
     8     3     4    1
     9     4     5    2
    10     4     6    1
    11     6    10   ar
    12     6     7   ar
    13     7     8   ar
    14     7    25    1
    15     8     9   ar
    16     9    10   ar
    17     9    26    1
    18    10    11    1
    19    11    12    1
    20    11    13    1
    21    11    14    1
    22    13    27    1
    23    13    28    1
    24    13    29    1
    25    14    19   ar
    26    14    15   ar
    27    15    16   ar
    28    15    30    1
    29    16    17   ar
    30    16    31    1
    31    17    18   ar
    32    17    32    1
    33    18    19   ar
    34    18    33    1
    35    19    34    1
