@<TRIPOS>MOLECULE
ZINC03830560
 33 33 0 0 0
SMALL
GASTEIGER

@<TRIPOS>ATOM
      1 C          -2.0782   -2.1787    2.5575 C.3     1  UNL1       -0.0227
      2 C          -2.1828   -2.5975    1.1136 C.ar    1  UNL1        0.0362
      3 C          -2.1246   -1.7902    0.0373 C.ar    1  UNL1        0.0715
      4 N          -2.2633   -2.5500   -1.0593 N.ar    1  UNL1       -0.2398
      5 C          -2.3971   -3.7985   -0.7037 C.ar    1  UNL1        0.0939
      6 N          -2.3556   -3.8716    0.6441 N.ar    1  UNL1       -0.3482
      7 H          -2.4361   -4.7016    1.1961 H       1  UNL1        0.1665
      8 C          -1.9422   -0.2945    0.0611 C.3     1  UNL1        0.0378
      9 S          -0.1723    0.0997    0.0079 S.3     1  UNL1       -0.1514
     10 C          -0.1253    1.9128    0.0427 C.3     1  UNL1        0.0247
     11 C           1.3290    2.3862    0.0019 C.3     1  UNL1        0.0737
     12 N           1.3670    3.8504    0.0301 N.pl3   1  UNL1       -0.2741
     13 C           2.5666    4.5032    0.0017 C.cat   1  UNL1        0.3972
     14 N           2.6008    5.8240    0.0271 N.pl3   1  UNL1        0.0103
     15 C           3.7873    6.4690    0.1384 C.1     1  UNL1        0.2954
     16 N           4.7820    7.0097    0.2318 N.1     1  UNL1       -0.1505
     17 N           3.7308    3.7907   -0.0528 N.pl3   1  UNL1       -0.2776
     18 C           5.0188    4.4859    0.0118 C.3     1  UNL1        0.0535
     19 H          -3.0724   -1.9537    2.9435 H       1  UNL1        0.0292
     20 H          -1.6370   -2.9878    3.1395 H       1  UNL1        0.0292
     21 H          -1.4495   -1.2915    2.6338 H       1  UNL1        0.0292
     22 H          -2.5241   -4.6342   -1.3758 H       1  UNL1        0.1027
     23 H          -2.3772    0.1101    0.9749 H       1  UNL1        0.0441
     24 H          -2.4387    0.1459   -0.8036 H       1  UNL1        0.0441
     25 H          -0.6600    2.3068   -0.8216 H       1  UNL1        0.0407
     26 H          -0.5986    2.2710    0.9569 H       1  UNL1        0.0407
     27 H           1.8637    1.9922    0.8663 H       1  UNL1        0.0663
     28 H           1.8022    2.0279   -0.9123 H       1  UNL1        0.0663
     29 H           0.5403    4.3563    0.0688 H       1  UNL1        0.2579
     30 H           3.7047    2.8245   -0.1343 H       1  UNL1        0.2576
     31 H           5.0975    5.1832   -0.8222 H       1  UNL1        0.0618
     32 H           5.0891    5.0338    0.9515 H       1  UNL1        0.0618
     33 H           5.8279    3.7578   -0.0457 H       1  UNL1        0.0618
@<TRIPOS>BOND
     1     1     2    1
     2     1    19    1
     3     1    20    1
     4     1    21    1
     5     2     6   ar
     6     2     3   ar
     7     3     4   ar
     8     3     8    1
     9     4     5   ar
    10     5     6   ar
    11     5    22    1
    12     6     7    1
    13     8     9    1
    14     8    23    1
    15     8    24    1
    16     9    10    1
    17    10    11    1
    18    10    25    1
    19    10    26    1
    20    11    12    1
    21    11    27    1
    22    11    28    1
    23    12    13    1
    24    12    29    1
    25    13    14    2
    26    13    17    1
    27    14    15    1
    28    15    16    3
    29    17    18    1
    30    17    30    1
    31    18    31    1
    32    18    32    1
    33    18    33    1
