@<TRIPOS>MOLECULE
ZINC03830819
 74 80 0 0 0
SMALL
GASTEIGER

@<TRIPOS>ATOM
      1 C          -0.0118   -0.1418   -2.4114 C.3     1  UNL1       -0.0136
      2 C           0.6910   -0.5634   -1.1194 C.3     1  UNL1        0.1570
      3 H           0.6875   -1.6507   -1.0424 H       1  UNL1        0.0907
      4 O           2.0402   -0.0916   -1.1359 O.3     1  UNL1       -0.3489
      5 C           2.1549    1.3332   -1.2031 C.3     1  UNL1        0.0794
      6 C           1.4240    1.9450   -0.0011 C.3     1  UNL1        0.1137
      7 H           1.4222    3.0317   -0.0863 H       1  UNL1        0.0647
      8 C          -0.0173    1.4254    0.0099 C.3     1  UNL1        0.1183
      9 H          -0.5404    1.7865   -0.8756 H       1  UNL1        0.0651
     10 O           0.0021   -0.0041    0.0020 O.3     1  UNL1       -0.3431
     11 C          -0.7342    1.9258    1.2646 C.3     1  UNL1        0.1144
     12 H          -1.7369    1.5003    1.3050 H       1  UNL1        0.0648
     13 C           0.0550    1.4935    2.5041 C.3     1  UNL1        0.1341
     14 H           0.0787    0.4053    2.5619 H       1  UNL1        0.0671
     15 C           1.4844    2.0322    2.3978 C.3     1  UNL1        0.1886
     16 H           2.0638    1.6990    3.2588 H       1  UNL1        0.0938
     17 O           2.0862    1.5408    1.1991 O.3     1  UNL1       -0.3405
     18 O           1.4555    3.4606    2.3661 O.3     1  UNL1       -0.3404
     19 C           2.7487    4.0685    2.3776 C.3     1  UNL1        0.0938
     20 H           3.4723    3.4048    1.9045 H       1  UNL1        0.0651
     21 C           3.1698    4.3536    3.8085 C.ar    1  UNL1       -0.0109
     22 C           3.6714    3.2674    4.5286 C.ar    1  UNL1       -0.0102
     23 C           4.0786    3.4849    5.8336 C.ar    1  UNL1        0.1666
     24 C           3.9887    4.7605    6.4123 C.ar    1  UNL1        0.1665
     25 C           3.4853    5.8316    5.6942 C.ar    1  UNL1       -0.0120
     26 C           3.0730    5.6037    4.3798 C.ar    1  UNL1       -0.0298
     27 C           2.5184    6.8061    3.6359 C.3     1  UNL1        0.0233
     28 H           3.3381    7.4349    3.2884 H       1  UNL1        0.0405
     29 C           1.7258    6.2965    2.4503 C.3     1  UNL1        0.0758
     30 H           0.8581    5.7243    2.7787 H       1  UNL1        0.0427
     31 C           2.7013    5.3899    1.6339 C.3     1  UNL1        0.0375
     32 H           3.6932    5.8280    1.5228 H       1  UNL1        0.0370
     33 C           1.9311    5.3669    0.3043 C.3     1  UNL1        0.0987
     34 O           1.4129    6.7385    0.1996 O.3     1  UNL1       -0.4640
     35 C           1.3231    7.3122    1.4224 C.2     1  UNL1        0.3116
     36 O           0.9773    8.4478    1.6474 O.2     1  UNL1       -0.2505
     37 C           1.6180    7.5989    4.5480 C.ar    1  UNL1       -0.0320
     38 C           0.5118    6.9971    5.1179 C.ar    1  UNL1       -0.0123
     39 C          -0.3160    7.7215    5.9622 C.ar    1  UNL1        0.1653
     40 C          -0.0387    9.0576    6.2258 C.ar    1  UNL1        0.2010
     41 C           1.0714    9.6605    5.6464 C.ar    1  UNL1        0.1653
     42 C           1.8976    8.9274    4.8080 C.ar    1  UNL1       -0.0123
     43 O           1.3473   10.9675    5.9016 O.3     1  UNL1       -0.4913
     44 C           2.5046   11.5211    5.2723 C.3     1  UNL1        0.0790
     45 O          -0.8517    9.7736    7.0495 O.3     1  UNL1       -0.5009
     46 O          -1.4013    7.1272    6.5264 O.3     1  UNL1       -0.4913
     47 C          -1.6248    5.7515    6.2110 C.3     1  UNL1        0.0790
     48 O           4.4544    4.6973    7.6803 O.3     1  UNL1       -0.4526
     49 C           4.4674    3.2945    8.0175 C.3     1  UNL1        0.2332
     50 O           4.5972    2.6294    6.7436 O.3     1  UNL1       -0.4526
     51 O          -0.5690    2.0212    3.6763 O.3     1  UNL1       -0.3841
     52 O          -0.8212    3.3517    1.2278 O.3     1  UNL1       -0.3864
     53 H          -0.0088    0.9455   -2.4885 H       1  UNL1        0.0278
     54 H           0.5132   -0.5680   -3.2663 H       1  UNL1        0.0278
     55 H          -1.0403   -0.5025   -2.3999 H       1  UNL1        0.0278
     56 H           3.2069    1.6169   -1.1741 H       1  UNL1        0.0587
     57 H           1.7027    1.6929   -2.1274 H       1  UNL1        0.0587
     58 H           3.7399    2.2870    4.0807 H       1  UNL1        0.0659
     59 H           3.4133    6.8139    6.1374 H       1  UNL1        0.0658
     60 H           2.6014    5.1435   -0.5257 H       1  UNL1        0.0701
     61 H           1.1150    4.6454    0.3439 H       1  UNL1        0.0701
     62 H           0.2943    5.9601    4.9087 H       1  UNL1        0.0658
     63 H           2.7604    9.3951    4.3574 H       1  UNL1        0.0658
     64 H           2.6088   12.5675    5.5593 H       1  UNL1        0.0660
     65 H           3.3893   10.9681    5.5877 H       1  UNL1        0.0660
     66 H           2.3986   11.4502    4.1898 H       1  UNL1        0.0660
     67 H          -1.5787   10.2197    6.5940 H       1  UNL1        0.2924
     68 H          -2.5202    5.4017    6.7249 H       1  UNL1        0.0660
     69 H          -1.7577    5.6424    5.1347 H       1  UNL1        0.0660
     70 H          -0.7671    5.1609    6.5329 H       1  UNL1        0.0660
     71 H           3.5343    3.0098    8.5037 H       1  UNL1        0.1166
     72 H           5.3176    3.0614    8.6585 H       1  UNL1        0.1166
     73 H          -0.1166    1.7922    4.4997 H       1  UNL1        0.2101
     74 H          -1.2654    3.7386    1.9946 H       1  UNL1        0.2100
@<TRIPOS>BOND
     1     1     2    1
     2     1    53    1
     3     1    54    1
     4     1    55    1
     5     2     3    1
     6     2    10    1
     7     2     4    1
     8     4     5    1
     9     5     6    1
    10     5    56    1
    11     5    57    1
    12     6     7    1
    13     6    17    1
    14     6     8    1
    15     8     9    1
    16     8    10    1
    17     8    11    1
    18    11    12    1
    19    11    13    1
    20    11    52    1
    21    13    14    1
    22    13    15    1
    23    13    51    1
    24    15    16    1
    25    15    17    1
    26    15    18    1
    27    18    19    1
    28    19    20    1
    29    19    31    1
    30    19    21    1
    31    21    26   ar
    32    21    22   ar
    33    22    23   ar
    34    22    58    1
    35    23    50    1
    36    23    24   ar
    37    24    25   ar
    38    24    48    1
    39    25    26   ar
    40    25    59    1
    41    26    27    1
    42    27    28    1
    43    27    29    1
    44    27    37    1
    45    29    30    1
    46    29    35    1
    47    29    31    1
    48    31    32    1
    49    31    33    1
    50    33    34    1
    51    33    60    1
    52    33    61    1
    53    34    35    1
    54    35    36    2
    55    37    42   ar
    56    37    38   ar
    57    38    39   ar
    58    38    62    1
    59    39    40   ar
    60    39    46    1
    61    40    41   ar
    62    40    45    1
    63    41    42   ar
    64    41    43    1
    65    42    63    1
    66    43    44    1
    67    44    64    1
    68    44    65    1
    69    44    66    1
    70    45    67    1
    71    46    47    1
    72    47    68    1
    73    47    69    1
    74    47    70    1
    75    48    49    1
    76    49    50    1
    77    49    71    1
    78    49    72    1
    79    51    73    1
    80    52    74    1
