@<TRIPOS>MOLECULE
ZINC03830216
 44 46 0 0 0
SMALL
GASTEIGER

@<TRIPOS>ATOM
      1 C          -1.7629    3.3856    1.4774 C.3     1  UNL1       -0.0486
      2 C          -1.1404    4.5463    0.6987 C.3     1  UNL1        0.0366
      3 CA          0.3260    4.8210    1.1508 C.3     1  UNL1        0.0807
      4 HA          0.6335    5.8071    0.8028 H       1  UNL1        0.0576
      5 N           1.2189    3.8059    0.5873 N.am    1  UNL1       -0.2761
      6 C           0.8835    3.3647   -0.7837 C.3     1  UNL1        0.1003
      7 H           1.6185    3.5340   -1.5706 H       1  UNL1        0.0640
      8 S          -0.7915    4.0806   -1.0565 S.3     1  UNL1       -0.1275
      9 CA          0.8460    1.9717   -0.1529 C.3     1  UNL1        0.1278
     10 HA          1.5904    1.2900   -0.5644 H       1  UNL1        0.0622
     11 C           1.2600    2.5814    1.1633 C.2     1  UNL1        0.2401
     12 O           1.5201    2.1553    2.2686 O.2     1  UNL1       -0.2734
     13 N          -0.4967    1.3865   -0.1224 N.am    1  UNL1       -0.2968
     14 C          -0.6744    0.1313    0.3351 C.2     1  UNL1        0.2665
     15 O           0.2771   -0.5138    0.7215 O.2     1  UNL1       -0.2692
     16 CA         -2.0556   -0.4707    0.3665 C.3     1  UNL1        0.0789
     17 HA         -2.7739    0.2844    0.6858 H       1  UNL1        0.1002
     18 C          -2.4213   -0.9611   -1.0108 C.ar    1  UNL1        0.0093
     19 C          -1.9344   -2.1734   -1.4635 C.ar    1  UNL1       -0.0493
     20 C          -2.2726   -2.6279   -2.7235 C.ar    1  UNL1       -0.0197
     21 C          -3.0928   -1.8616   -3.5389 C.ar    1  UNL1        0.1169
     22 C          -3.5754   -0.6429   -3.0845 C.ar    1  UNL1       -0.0197
     23 C          -3.2384   -0.1954   -1.8217 C.ar    1  UNL1       -0.0493
     24 O          -3.4225   -2.3039   -4.7809 O.3     1  UNL1       -0.5068
     25 C           0.4029    4.7760    2.6551 C.2     1  UNL1        0.0635
     26 O           0.2815    3.7230    3.2350 O.co2   1  UNL1       -0.5478
     27 C          -2.0040    5.8060    0.7887 C.3     1  UNL1       -0.0486
     28 H          -1.9057    3.6807    2.5170 H       1  UNL1        0.0244
     29 H          -2.7262    3.1281    1.0372 H       1  UNL1        0.0244
     30 H          -1.1003    2.5213    1.4327 H       1  UNL1        0.0244
     31 H          -1.2572    1.9010   -0.4352 H       1  UNL1        0.1497
     32 H          -1.2924   -2.7675   -0.8300 H       1  UNL1        0.0623
     33 H          -1.8954   -3.5768   -3.0751 H       1  UNL1        0.0654
     34 H          -4.2143   -0.0448   -3.7172 H       1  UNL1        0.0654
     35 H          -3.6139    0.7533   -1.4675 H       1  UNL1        0.0623
     36 H          -2.8073   -2.0263   -5.4734 H       1  UNL1        0.2921
     37 H1         -1.4196   -2.3111    1.0348 H       1  UNL1        0.2005
     38 H2         -1.8988   -1.2836    2.2514 H       1  UNL1        0.2005
     39 H          -1.5855    6.5802    0.1456 H       1  UNL1        0.0244
     40 H          -3.0190    5.5746    0.4655 H       1  UNL1        0.0244
     41 H          -2.0229    6.1608    1.8192 H       1  UNL1        0.0244
     42 N          -2.1015   -1.6048    1.3062 N.4     1  UNL1        0.2307
     43 H3         -3.0401   -2.0206    1.2878 H       1  UNL1        0.2005
     44 OXT         0.6062    5.9058    3.3509 O.co2   1  UNL1       -0.5478
@<TRIPOS>UNITY_ATOM_ATTR
42 1
charge 1
44 1
charge -1
@<TRIPOS>BOND
     1     1     2    1
     2     1    28    1
     3     1    29    1
     4     1    30    1
     5     2     8    1
     6     2     3    1
     7     2    27    1
     8     3     4    1
     9     3     5    1
    10     3    25    1
    11     5    11   am
    12     5     6    1
    13     6     7    1
    14     6     8    1
    15     6     9    1
    16     9    10    1
    17     9    11    1
    18     9    13    1
    19    11    12    2
    20    13    14   am
    21    13    31    1
    22    14    15    2
    23    14    16    1
    24    16    17    1
    25    16    18    1
    26    16    42    1
    27    18    23   ar
    28    18    19   ar
    29    19    20   ar
    30    19    32    1
    31    20    21   ar
    32    20    33    1
    33    21    22   ar
    34    21    24    1
    35    22    23   ar
    36    22    34    1
    37    23    35    1
    38    24    36    1
    39    25    26   ar
    40    25    44   ar
    41    27    39    1
    42    27    40    1
    43    27    41    1
    44    37    42    1
    45    38    42    1
    46    42    43    1
