@<TRIPOS>MOLECULE
ZINC00538160
 55 58 0 0 0
SMALL
GASTEIGER

@<TRIPOS>ATOM
      1 C           2.4757    3.5968    0.2917 C.ar    1  UNL1       -0.0599
      2 C           2.7324    2.2393    0.3254 C.ar    1  UNL1       -0.0606
      3 C           1.6833    1.3384    0.3169 C.ar    1  UNL1       -0.0462
      4 C           0.3734    1.7939    0.2693 C.ar    1  UNL1        0.0341
      5 C           0.1102    3.1607    0.2443 C.ar    1  UNL1        0.0479
      6 C           1.1736    4.0577    0.2519 C.ar    1  UNL1       -0.0393
      7 N          -1.1890    3.6602    0.2111 N.pl3   1  UNL1       -0.2981
      8 C          -2.3014    2.9625   -0.2518 C.ar    1  UNL1        0.0493
      9 C          -3.4092    3.6815   -0.6895 C.ar    1  UNL1       -0.0209
     10 C          -4.5329    3.0211   -1.1510 C.ar    1  UNL1        0.0428
     11 C          -4.5636    1.6387   -1.1820 C.ar    1  UNL1       -0.0422
     12 C          -3.4670    0.9148   -0.7509 C.ar    1  UNL1       -0.0448
     13 C          -2.3362    1.5714   -0.2868 C.ar    1  UNL1        0.0342
     14 S          -0.9489    0.6313    0.2554 S.3     1  UNL1       -0.0857
     15 CL         -5.9088    3.9297   -1.6941 Cl      1  UNL1       -0.0835
     16 C          -1.4019    5.0243    0.7011 C.3     1  UNL1        0.0221
     17 C          -1.2448    6.0124   -0.4564 C.3     1  UNL1        0.0036
     18 C          -1.4671    7.4370    0.0554 C.3     1  UNL1       -0.0300
     19 C           0.0689    8.4061   -1.5466 C.3     1  UNL1        0.0094
     20 C           0.1666    9.3444   -2.7518 C.3     1  UNL1        0.0095
     21 C          -1.6544   10.6709   -1.8667 C.3     1  UNL1        0.0095
     22 C          -1.7521    9.7326   -0.6615 C.3     1  UNL1        0.0094
     23 C          -0.1184   11.6400   -3.4687 C.3     1  UNL1       -0.0078
     24 C          -0.1044   13.0687   -2.9214 C.3     1  UNL1        0.0841
     25 O           1.0497   13.2524   -2.0989 O.3     1  UNL1       -0.3898
     26 H           3.2955    4.2998    0.2961 H       1  UNL1        0.0618
     27 H           3.7512    1.8824    0.3579 H       1  UNL1        0.0618
     28 H           1.8840    0.2775    0.3430 H       1  UNL1        0.0629
     29 H           0.9804    5.1200    0.2263 H       1  UNL1        0.0636
     30 H          -3.3914    4.7611   -0.6684 H       1  UNL1        0.0651
     31 H          -5.4426    1.1253   -1.5427 H       1  UNL1        0.0632
     32 H          -3.4908   -0.1647   -0.7758 H       1  UNL1        0.0630
     33 H          -2.4060    5.1084    1.1168 H       1  UNL1        0.0470
     34 H          -0.6682    5.2511    1.4746 H       1  UNL1        0.0470
     35 H          -0.2407    5.9283   -0.8721 H       1  UNL1        0.0332
     36 H          -1.9784    5.7856   -1.2299 H       1  UNL1        0.0332
     37 H          -2.4712    7.5211    0.4711 H       1  UNL1        0.0815
     38 H          -0.7334    7.6639    0.8289 H       1  UNL1        0.0815
     39 H           0.7297    8.7604   -0.7554 H       1  UNL1        0.0868
     40 H           0.3641    7.4000   -1.8442 H       1  UNL1        0.0868
     41 H          -0.4736    8.9751   -3.5530 H       1  UNL1        0.0868
     42 H           1.1989    9.3835   -3.0995 H       1  UNL1        0.0868
     43 H          -2.3152   10.3167   -2.6579 H       1  UNL1        0.0868
     44 H          -1.9500   11.6770   -1.5692 H       1  UNL1        0.0868
     45 H          -2.7844    9.6935   -0.3138 H       1  UNL1        0.0868
     46 H          -1.1119   10.1019    0.1397 H       1  UNL1        0.0868
     47 H           0.8176   11.4419   -3.9910 H       1  UNL1        0.0837
     48 H          -0.9523   11.5243   -4.1610 H       1  UNL1        0.0837
     49 H          -0.0756   13.7753   -3.7508 H       1  UNL1        0.0610
     50 H          -1.0035   13.2398   -2.3293 H       1  UNL1        0.0610
     51 H           1.1236   14.1377   -1.7171 H       1  UNL1        0.2096
     52 N          -1.3325    8.3778   -1.0772 N.4     1  UNL1        0.2427
     53 H          -1.9357    8.0627   -1.8461 H       1  UNL1        0.2038
     54 N          -0.2532   10.6994   -2.3360 N.4     1  UNL1        0.2443
     55 H           0.3500   11.0145   -1.5671 H       1  UNL1        0.2038
@<TRIPOS>UNITY_ATOM_ATTR
52 1
charge 1
54 1
charge 1
@<TRIPOS>BOND
     1     1     6   ar
     2     1     2   ar
     3     1    26    1
     4     2     3   ar
     5     2    27    1
     6     3     4   ar
     7     3    28    1
     8     4    14    1
     9     4     5   ar
    10     5     6   ar
    11     5     7    1
    12     6    29    1
    13     7     8    1
    14     7    16    1
    15     8    13   ar
    16     8     9   ar
    17     9    10   ar
    18     9    30    1
    19    10    11   ar
    20    10    15    1
    21    11    12   ar
    22    11    31    1
    23    12    13   ar
    24    12    32    1
    25    13    14    1
    26    16    17    1
    27    16    33    1
    28    16    34    1
    29    17    18    1
    30    17    35    1
    31    17    36    1
    32    18    37    1
    33    18    38    1
    34    18    52    1
    35    19    20    1
    36    19    39    1
    37    19    40    1
    38    19    52    1
    39    20    41    1
    40    20    42    1
    41    20    54    1
    42    21    22    1
    43    21    43    1
    44    21    44    1
    45    21    54    1
    46    22    45    1
    47    22    46    1
    48    22    52    1
    49    23    24    1
    50    23    47    1
    51    23    48    1
    52    23    54    1
    53    24    25    1
    54    24    49    1
    55    24    50    1
    56    25    51    1
    57    52    53    1
    58    54    55    1
