@<TRIPOS>MOLECULE
ZINC13319951
 54 57 0 0 0
SMALL
GASTEIGER

@<TRIPOS>ATOM
      1 C           0.0119    9.5998   -2.3863 C.3     1  UNL1       -0.0555
      2 C           0.2670    9.2756   -0.9154 C.3     1  UNL1       -0.0049
      3 C          -0.9549    9.6968   -0.0857 C.3     1  UNL1       -0.0366
      4 C          -1.2451   11.1832   -0.2790 C.3     1  UNL1        0.0107
      5 C           0.0014   11.9909   -0.0286 C.2     1  UNL1        0.1561
      6 O          -0.0850   13.1785    0.2096 O.2     1  UNL1       -0.2927
      7 C           1.3153   11.3521   -0.0698 C.2     1  UNL1       -0.0194
      8 C           1.4529   10.0938   -0.4630 C.2     1  UNL1       -0.0600
      9 C           2.8003    9.4126   -0.4519 C.3     1  UNL1       -0.0305
     10 C           2.7152    8.3100    0.6017 C.3     1  UNL1       -0.0459
     11 C           1.4172    7.5386    0.5240 C.3     1  UNL1       -0.0311
     12 H           0.8185    7.8978    1.4121 H       1  UNL1        0.0308
     13 C           0.5212    7.7950   -0.6756 C.3     1  UNL1       -0.0027
     14 H          -0.4851    7.4224   -0.3315 H       1  UNL1        0.0337
     15 C           0.7916    6.9671   -1.9084 C.3     1  UNL1        0.0600
     16 H           1.6430    7.3395   -2.4632 H       1  UNL1        0.0596
     17 C           0.9844    5.4684   -1.5767 C.3     1  UNL1       -0.0135
     18 C           2.0664    5.3346   -0.5356 C.3     1  UNL1        0.0409
     19 C           1.6046    6.0582    0.7434 C.3     1  UNL1       -0.0250
     20 H           0.6350    5.6280    1.0784 H       1  UNL1        0.0313
     21 C           2.6789    5.6376    1.7549 C.3     1  UNL1       -0.0484
     22 C           2.8861    4.1334    1.4264 C.3     1  UNL1       -0.0422
     23 C           2.3675    3.9218   -0.0194 C.3     1  UNL1        0.0322
     24 H           3.0554    3.4926   -0.6047 H       1  UNL1        0.0388
     25 C           1.1372    3.0606   -0.0168 C.2     1  UNL1        0.1624
     26 O           0.0430    3.5709    0.0089 O.2     1  UNL1       -0.2946
     27 C           1.2680    1.5596   -0.0464 C.3     1  UNL1        0.1025
     28 O          -0.0326    0.9678   -0.0378 O.3     1  UNL1       -0.3875
     29 C           3.3573    5.8771   -1.0936 C.2     1  UNL1        0.1274
     30 O           4.3801    5.2468   -0.9714 O.2     1  UNL1       -0.3004
     31 O          -0.3620    6.9883   -2.7765 O.3     1  UNL1       -0.3914
     32 H          -0.8635    9.0506   -2.7328 H       1  UNL1        0.0238
     33 H          -0.1631   10.6699   -2.4974 H       1  UNL1        0.0238
     34 H           0.8802    9.3102   -2.9780 H       1  UNL1        0.0238
     35 H          -1.8167    9.1058   -0.3970 H       1  UNL1        0.0278
     36 H          -0.7473    9.4972    0.9686 H       1  UNL1        0.0278
     37 H          -1.5654   11.3416   -1.2130 H       1  UNL1        0.0345
     38 H          -2.0129   11.4898    0.4439 H       1  UNL1        0.0345
     39 H           2.1898   11.9235    0.2068 H       1  UNL1        0.0652
     40 H           3.0033    8.9754   -1.4246 H       1  UNL1        0.0310
     41 H           3.5759   10.1216   -0.1818 H       1  UNL1        0.0310
     42 H           2.7457    8.8124    1.5868 H       1  UNL1        0.0271
     43 H           3.5883    7.6830    0.5546 H       1  UNL1        0.0271
     44 H           0.0348    5.0755   -1.2100 H       1  UNL1        0.0300
     45 H           1.2728    4.9376   -2.4872 H       1  UNL1        0.0300
     46 H           2.2982    5.7519    2.7739 H       1  UNL1        0.0268
     47 H           3.5992    6.1994    1.6343 H       1  UNL1        0.0268
     48 H           2.3097    3.5192    2.1190 H       1  UNL1        0.0272
     49 H           3.9427    3.8784    1.4911 H       1  UNL1        0.0272
     50 H           1.7787    1.2536    0.7571 H       1  UNL1        0.0636
     51 H           1.7981    1.2588   -0.9500 H       1  UNL1        0.0636
     52 H          -0.0250    0.0010   -0.0557 H       1  UNL1        0.2100
     53 H           3.3675    6.8296   -1.6027 H       1  UNL1        0.1032
     54 H          -0.2529    6.4742   -3.5882 H       1  UNL1        0.2098
@<TRIPOS>BOND
     1     1     2    1
     2     1    32    1
     3     1    33    1
     4     1    34    1
     5     2     8    1
     6     2    13    1
     7     2     3    1
     8     3     4    1
     9     3    35    1
    10     3    36    1
    11     4     5    1
    12     4    37    1
    13     4    38    1
    14     5     6    2
    15     5     7    1
    16     7     8    2
    17     7    39    1
    18     8     9    1
    19     9    10    1
    20     9    40    1
    21     9    41    1
    22    10    11    1
    23    10    42    1
    24    10    43    1
    25    11    12    1
    26    11    19    1
    27    11    13    1
    28    13    14    1
    29    13    15    1
    30    15    16    1
    31    15    17    1
    32    15    31    1
    33    17    18    1
    34    17    44    1
    35    17    45    1
    36    18    23    1
    37    18    19    1
    38    18    29    1
    39    19    20    1
    40    19    21    1
    41    21    22    1
    42    21    46    1
    43    21    47    1
    44    22    23    1
    45    22    48    1
    46    22    49    1
    47    23    24    1
    48    23    25    1
    49    25    26    2
    50    25    27    1
    51    27    28    1
    52    27    50    1
    53    27    51    1
    54    28    52    1
    55    29    30    2
    56    29    53    1
    57    31    54    1
