@<TRIPOS>MOLECULE
ZINC00002062
 28 29 0 0 0
SMALL
GASTEIGER

@<TRIPOS>ATOM
      1 C          -4.6928   -3.0067   -0.3056 C.ar    1  UNL1       -0.0608
      2 C          -4.6016   -4.3845   -0.4219 C.ar    1  UNL1       -0.0583
      3 C          -3.3682   -5.0044   -0.4353 C.ar    1  UNL1       -0.0194
      4 C          -2.2092   -4.2493   -0.3321 C.ar    1  UNL1        0.1308
      5 C          -2.2970   -2.8550   -0.2147 C.ar    1  UNL1        0.1007
      6 C          -3.5527   -2.2411   -0.1976 C.ar    1  UNL1       -0.0442
      7 C          -1.0728   -2.0419   -0.1038 C.2     1  UNL1        0.3480
      8 O           0.0168   -2.5797   -0.1139 O.2     1  UNL1       -0.2444
      9 O          -1.1618   -0.7015    0.0089 O.3     1  UNL1       -0.4216
     10 C           0.0019   -0.0038   -0.0015 C.ar    1  UNL1        0.1408
     11 C           0.6342    0.3141    1.1911 C.ar    1  UNL1       -0.0186
     12 C           1.8188    1.0233    1.1790 C.ar    1  UNL1       -0.0582
     13 C           2.3844    1.4229   -0.0209 C.ar    1  UNL1       -0.0609
     14 C           1.7697    1.1163   -1.2155 C.ar    1  UNL1       -0.0494
     15 C           0.5707    0.3986   -1.2179 C.ar    1  UNL1        0.0397
     16 C          -0.0891    0.0614   -2.4926 C.2     1  UNL1        0.0752
     17 O          -1.1290   -0.5671   -2.4907 O.co2   1  UNL1       -0.5445
     18 O          -0.9967   -4.8571   -0.3442 O.3     1  UNL1       -0.5059
     19 H          -5.6625   -2.5312   -0.2957 H       1  UNL1        0.0618
     20 H          -5.5010   -4.9770   -0.5022 H       1  UNL1        0.0619
     21 H          -3.3055   -6.0788   -0.5259 H       1  UNL1        0.0654
     22 H          -3.6288   -1.1680   -0.1030 H       1  UNL1        0.0627
     23 H           0.1996    0.0061    2.1307 H       1  UNL1        0.0654
     24 H           2.3077    1.2677    2.1105 H       1  UNL1        0.0619
     25 H           3.3114    1.9770   -0.0201 H       1  UNL1        0.0618
     26 H           2.2143    1.4296   -2.1485 H       1  UNL1        0.0625
     27 H          -0.6743   -5.1093    0.5319 H       1  UNL1        0.2922
     28 O           0.4611    0.4502   -3.6595 O.co2   1  UNL1       -0.5445
@<TRIPOS>UNITY_ATOM_ATTR
28 1
charge -1
@<TRIPOS>BOND
     1     1     6   ar
     2     1     2   ar
     3     1    19    1
     4     2     3   ar
     5     2    20    1
     6     3     4   ar
     7     3    21    1
     8     4     5   ar
     9     4    18    1
    10     5     6   ar
    11     5     7    1
    12     6    22    1
    13     7     8    2
    14     7     9    1
    15     9    10    1
    16    10    15   ar
    17    10    11   ar
    18    11    12   ar
    19    11    23    1
    20    12    13   ar
    21    12    24    1
    22    13    14   ar
    23    13    25    1
    24    14    15   ar
    25    14    26    1
    26    15    16    1
    27    16    17   ar
    28    16    28   ar
    29    18    27    1
