@<TRIPOS>MOLECULE
ZINC03831218
 48 51 0 0 0
SMALL
GASTEIGER

@<TRIPOS>ATOM
      1 C           2.1148    0.9534   -2.1147 C.3     1  UNL1       -0.0558
      2 C           0.9772    1.5154   -2.9665 C.3     1  UNL1        0.0111
      3 C           0.9967    3.0235   -2.9409 C.3     1  UNL1       -0.0435
      4 C           0.5713    3.5111   -1.5438 C.3     1  UNL1       -0.0488
      5 C          -0.8196    3.0012   -1.1960 C.3     1  UNL1       -0.0314
      6 H          -1.4980    3.3481   -1.9931 H       1  UNL1        0.0309
      7 C          -0.8661    1.4663   -1.2066 C.3     1  UNL1       -0.0339
      8 H          -1.9270    1.1661   -1.0647 H       1  UNL1        0.0307
      9 C          -0.4139    0.9965   -2.5569 C.3     1  UNL1       -0.0289
     10 H          -1.1534    1.3740   -3.3071 H       1  UNL1        0.0310
     11 C          -0.2727   -0.5092   -2.8053 C.3     1  UNL1       -0.0458
     12 C           0.5020   -0.5520   -4.1548 C.3     1  UNL1       -0.0118
     13 C           1.1149    0.8593   -4.3549 C.3     1  UNL1        0.1317
     14 C           2.5329    0.7592   -4.7230 C.1     1  UNL1       -0.0704
     15 C           3.6666    0.6792   -5.0173 C.1     1  UNL1       -0.1163
     16 O           0.3818    1.5973   -5.3260 O.3     1  UNL1       -0.3760
     17 C          -0.0638    0.9030   -0.0413 C.3     1  UNL1       -0.0460
     18 C          -0.7617    1.3105    1.2671 C.3     1  UNL1       -0.0308
     19 C          -0.7953    2.8285    1.3025 C.2     1  UNL1       -0.0629
     20 C          -0.3507    3.4317    2.4046 C.2     1  UNL1       -0.0197
     21 C          -0.4248    4.8902    2.5306 C.2     1  UNL1        0.1561
     22 O           0.2348    5.4918    3.3547 O.2     1  UNL1       -0.2927
     23 C          -1.3611    5.6140    1.5840 C.3     1  UNL1        0.0104
     24 C          -1.1116    5.0658    0.1784 C.3     1  UNL1       -0.0392
     25 C          -1.3398    3.5647    0.1191 C.3     1  UNL1       -0.0160
     26 H          -2.4291    3.4138    0.1263 H       1  UNL1        0.0349
     27 H           2.0396   -0.1334   -2.0795 H       1  UNL1        0.0236
     28 H           3.0715    1.2374   -2.5531 H       1  UNL1        0.0236
     29 H           2.0447    1.3553   -1.1039 H       1  UNL1        0.0236
     30 H           2.0039    3.3887   -3.1591 H       1  UNL1        0.0272
     31 H           0.3048    3.4223   -3.6867 H       1  UNL1        0.0272
     32 H           1.2849    3.1787   -0.7973 H       1  UNL1        0.0268
     33 H           0.5607    4.6043   -1.5594 H       1  UNL1        0.0268
     34 H           0.2826   -1.0021   -2.0152 H       1  UNL1        0.0269
     35 H          -1.2569   -0.9698   -2.9225 H       1  UNL1        0.0269
     36 H           1.2913   -1.3000   -4.1090 H       1  UNL1        0.0303
     37 H          -0.1853   -0.7790   -4.9692 H       1  UNL1        0.0303
     38 H           4.6806    0.6077   -5.2805 H       1  UNL1        0.1229
     39 H           0.3777    1.1947   -6.2052 H       1  UNL1        0.2114
     40 H          -0.0094   -0.1796   -0.0985 H       1  UNL1        0.0271
     41 H           0.9341    1.3379   -0.0049 H       1  UNL1        0.0271
     42 H          -1.7736    0.9155    1.2780 H       1  UNL1        0.0310
     43 H          -0.1937    0.9322    2.1129 H       1  UNL1        0.0310
     44 H           0.1048    2.8439    3.1883 H       1  UNL1        0.0652
     45 H          -1.1751    6.5960    1.6173 H       1  UNL1        0.0345
     46 H          -2.3964    5.4303    1.8729 H       1  UNL1        0.0345
     47 H          -0.0837    5.2896   -0.0994 H       1  UNL1        0.0275
     48 H          -1.7894    5.5559   -0.5199 H       1  UNL1        0.0275
@<TRIPOS>BOND
     1     1     2    1
     2     1    27    1
     3     1    28    1
     4     1    29    1
     5     2     9    1
     6     2    13    1
     7     2     3    1
     8     3     4    1
     9     3    30    1
    10     3    31    1
    11     4     5    1
    12     4    32    1
    13     4    33    1
    14     5     6    1
    15     5    25    1
    16     5     7    1
    17     7     8    1
    18     7     9    1
    19     7    17    1
    20     9    10    1
    21     9    11    1
    22    11    12    1
    23    11    34    1
    24    11    35    1
    25    12    13    1
    26    12    36    1
    27    12    37    1
    28    13    14    1
    29    13    16    1
    30    14    15    3
    31    15    38    1
    32    16    39    1
    33    17    18    1
    34    17    40    1
    35    17    41    1
    36    18    19    1
    37    18    42    1
    38    18    43    1
    39    19    25    1
    40    19    20    2
    41    20    21    1
    42    20    44    1
    43    21    22    2
    44    21    23    1
    45    23    24    1
    46    23    45    1
    47    23    46    1
    48    24    25    1
    49    24    47    1
    50    24    48    1
    51    25    26    1
