@<TRIPOS>MOLECULE
ZINC03831061
 50 53 0 0 0
SMALL
GASTEIGER

@<TRIPOS>ATOM
      1 C           0.2255    0.4063   -2.4130 C.3     1  UNL1       -0.0567
      2 C           0.6835   -0.5141   -1.2834 C.3     1  UNL1       -0.0004
      3 C           2.1898   -0.5181   -1.1869 C.3     1  UNL1       -0.0445
      4 C           2.7664   -1.2504   -2.4100 C.3     1  UNL1       -0.0483
      5 C           2.2442   -2.6820   -2.4732 C.3     1  UNL1       -0.0253
      6 H           2.5164   -3.1690   -1.5238 H       1  UNL1        0.0315
      7 C           0.7151   -2.7114   -2.5811 C.3     1  UNL1       -0.0334
      8 H           0.3924   -3.7727   -2.4760 H       1  UNL1        0.0307
      9 C           0.1566   -1.9562   -1.4102 C.3     1  UNL1       -0.0298
     10 H           0.4533   -2.5103   -0.4855 H       1  UNL1        0.0310
     11 C          -1.3585   -1.7418   -1.3243 C.3     1  UNL1       -0.0468
     12 C          -1.4772   -0.6921   -0.1802 C.3     1  UNL1       -0.0235
     13 C          -0.0696   -0.0622   -0.0163 C.3     1  UNL1        0.0689
     14 C          -0.1629    1.4608    0.0190 C.3     1  UNL1       -0.0356
     15 O           0.5776   -0.5637    1.1483 O.3     1  UNL1       -0.3883
     16 C           0.2339   -2.2317   -3.9401 C.3     1  UNL1       -0.0459
     17 C           0.7748   -3.1856   -5.0243 C.3     1  UNL1       -0.0302
     18 C           2.2889   -3.1212   -4.9186 C.2     1  UNL1       -0.0560
     19 C           2.9876   -2.7447   -5.9798 C.2     1  UNL1       -0.0149
     20 C           4.4518   -2.6174   -5.9053 C.2     1  UNL1        0.1787
     21 O           5.1011   -2.3078   -6.8863 O.2     1  UNL1       -0.2879
     22 C           5.1102   -2.8737   -4.6133 C.2     1  UNL1       -0.0180
     23 C           4.3924   -3.2540   -3.5705 C.2     1  UNL1       -0.0702
     24 C           2.9121   -3.4611   -3.5987 C.3     1  UNL1        0.0108
     25 C           2.6774   -4.9558   -3.3432 C.3     1  UNL1       -0.0521
     26 H           0.4483    1.4408   -2.1518 H       1  UNL1        0.0236
     27 H           0.7496    0.1426   -3.3317 H       1  UNL1        0.0236
     28 H          -0.8483    0.2923   -2.5618 H       1  UNL1        0.0236
     29 H           2.5650    0.5086   -1.1679 H       1  UNL1        0.0272
     30 H           2.5071   -1.0288   -0.2748 H       1  UNL1        0.0272
     31 H           3.8555   -1.2762   -2.3216 H       1  UNL1        0.0269
     32 H           2.5031   -0.7245   -3.3229 H       1  UNL1        0.0269
     33 H          -1.7708   -1.3634   -2.2521 H       1  UNL1        0.0269
     34 H          -1.8594   -2.6695   -1.0347 H       1  UNL1        0.0269
     35 H          -1.7749   -1.1858    0.7441 H       1  UNL1        0.0293
     36 H          -2.2033    0.0733   -0.4498 H       1  UNL1        0.0293
     37 H           0.8402    1.8855    0.0578 H       1  UNL1        0.0257
     38 H          -0.6728    1.8144   -0.8771 H       1  UNL1        0.0257
     39 H          -0.7228    1.7701    0.9016 H       1  UNL1        0.0257
     40 H           0.1347   -0.3304    1.9756 H       1  UNL1        0.2102
     41 H          -0.8520   -2.2266   -3.9830 H       1  UNL1        0.0271
     42 H           0.6280   -1.2451   -4.1752 H       1  UNL1        0.0271
     43 H           0.4563   -2.8365   -6.0033 H       1  UNL1        0.0310
     44 H           0.4174   -4.1923   -4.8418 H       1  UNL1        0.0310
     45 H           2.4799   -2.5345   -6.9091 H       1  UNL1        0.0655
     46 H           6.1795   -2.7516   -4.5186 H       1  UNL1        0.0653
     47 H           4.9048   -3.4278   -2.6354 H       1  UNL1        0.0582
     48 H           1.6065   -5.1582   -3.3287 H       1  UNL1        0.0241
     49 H           3.1465   -5.5380   -4.1364 H       1  UNL1        0.0241
     50 H           3.1126   -5.2330   -2.3831 H       1  UNL1        0.0241
@<TRIPOS>BOND
     1     1     2    1
     2     1    26    1
     3     1    27    1
     4     1    28    1
     5     2     9    1
     6     2    13    1
     7     2     3    1
     8     3     4    1
     9     3    29    1
    10     3    30    1
    11     4     5    1
    12     4    31    1
    13     4    32    1
    14     5     6    1
    15     5    24    1
    16     5     7    1
    17     7     8    1
    18     7     9    1
    19     7    16    1
    20     9    10    1
    21     9    11    1
    22    11    12    1
    23    11    33    1
    24    11    34    1
    25    12    13    1
    26    12    35    1
    27    12    36    1
    28    13    14    1
    29    13    15    1
    30    14    37    1
    31    14    38    1
    32    14    39    1
    33    15    40    1
    34    16    17    1
    35    16    41    1
    36    16    42    1
    37    17    18    1
    38    17    43    1
    39    17    44    1
    40    18    24    1
    41    18    19    2
    42    19    20    1
    43    19    45    1
    44    20    21    2
    45    20    22    1
    46    22    23    2
    47    22    46    1
    48    23    24    1
    49    23    47    1
    50    24    25    1
    51    25    48    1
    52    25    49    1
    53    25    50    1
