@<TRIPOS>MOLECULE
ZINC00006427
 33 35 0 0 0
SMALL
GASTEIGER

@<TRIPOS>ATOM
      1 C           4.2196   -1.8876   -0.8396 C.3     1  UNL1        0.0084
      2 N           3.9200   -0.7142   -0.0153 N.am    1  UNL1       -0.2723
      3 C           2.6883   -0.1034   -0.1965 C.ar    1  UNL1        0.0452
      4 C           1.5813   -0.9347   -0.3801 C.ar    1  UNL1       -0.0383
      5 C           0.3257   -0.4013   -0.5688 C.ar    1  UNL1       -0.0416
      6 C           0.1486    0.9735   -0.5792 C.ar    1  UNL1        0.0417
      7 C           1.2285    1.8080   -0.3999 C.ar    1  UNL1       -0.0324
      8 C           2.5136    1.2788   -0.2049 C.ar    1  UNL1        0.0233
      9 C           3.6212    2.2289   -0.0158 C.2     1  UNL1        0.0750
     10 N           4.5818    2.0806    0.8262 N.2     1  UNL1       -0.2734
     11 C           4.6700    0.9104    1.6987 C.3     1  UNL1        0.1169
     12 C           4.8512   -0.3178    0.8492 C.2     1  UNL1        0.2410
     13 O           5.8725   -0.9635    0.9546 O.2     1  UNL1       -0.2732
     14 C           3.6305    3.4474   -0.8585 C.ar    1  UNL1        0.0006
     15 C           2.9601    3.4579   -2.0815 C.ar    1  UNL1       -0.0526
     16 C           2.9675    4.5976   -2.8592 C.ar    1  UNL1       -0.0611
     17 C           3.6477    5.7246   -2.4334 C.ar    1  UNL1       -0.0617
     18 C           4.3193    5.7184   -1.2239 C.ar    1  UNL1       -0.0611
     19 C           4.3143    4.5866   -0.4347 C.ar    1  UNL1       -0.0526
     20 CL         -1.4341    1.6429   -0.8255 Cl      1  UNL1       -0.0835
     21 H           4.7020   -1.5690   -1.7637 H       1  UNL1        0.0433
     22 H           4.8861   -2.5549   -0.2932 H       1  UNL1        0.0433
     23 H           3.2936   -2.4120   -1.0754 H       1  UNL1        0.0433
     24 H           1.7112   -2.0068   -0.3737 H       1  UNL1        0.0637
     25 H          -0.5224   -1.0552   -0.7086 H       1  UNL1        0.0633
     26 H           1.0857    2.8785   -0.4093 H       1  UNL1        0.0639
     27 H           3.7533    0.8194    2.2812 H       1  UNL1        0.0605
     28 H           5.5209    1.0178    2.3714 H       1  UNL1        0.0605
     29 H           2.4328    2.5772   -2.4171 H       1  UNL1        0.0624
     30 H           2.4448    4.6086   -3.8042 H       1  UNL1        0.0618
     31 H           3.6541    6.6130   -3.0476 H       1  UNL1        0.0618
     32 H           4.8488    6.6011   -0.8970 H       1  UNL1        0.0618
     33 H           4.8387    4.5830    0.5095 H       1  UNL1        0.0624
@<TRIPOS>BOND
     1     1     2    1
     2     1    21    1
     3     1    22    1
     4     1    23    1
     5     2    12   am
     6     2     3    1
     7     3     8   ar
     8     3     4   ar
     9     4     5   ar
    10     4    24    1
    11     5     6   ar
    12     5    25    1
    13     6     7   ar
    14     6    20    1
    15     7     8   ar
    16     7    26    1
    17     8     9    1
    18     9    10    2
    19     9    14    1
    20    10    11    1
    21    11    12    1
    22    11    27    1
    23    11    28    1
    24    12    13    2
    25    14    19   ar
    26    14    15   ar
    27    15    16   ar
    28    15    29    1
    29    16    17   ar
    30    16    30    1
    31    17    18   ar
    32    17    31    1
    33    18    19   ar
    34    18    32    1
    35    19    33    1
