@<TRIPOS>MOLECULE
ZINC03831537
 51 54 0 0 0
SMALL
GASTEIGER

@<TRIPOS>ATOM
      1 C           0.6443    0.9043   -0.2485 C.3     1  UNL1       -0.0618
      2 C          -0.2865    1.1875    0.9323 C.3     1  UNL1       -0.0365
      3 H          -0.5279    2.2499    0.9667 H       1  UNL1        0.0304
      4 C          -1.5638    0.3695    0.7920 C.3     1  UNL1       -0.0282
      5 C          -2.4019    0.4136    2.0539 C.2     1  UNL1       -0.0627
      6 C          -1.9241    0.7592    3.2096 C.2     1  UNL1       -0.0661
      7 C          -2.7159    0.7125    4.4991 C.3     1  UNL1       -0.0245
      8 C          -4.2175    0.7962    4.2527 C.3     1  UNL1        0.0098
      9 C          -4.5354   -0.2140    3.1659 C.2     1  UNL1        0.1376
     10 O          -5.2969   -1.1330    3.3501 O.2     1  UNL1       -0.2971
     11 C          -3.8462   -0.0028    1.8443 C.3     1  UNL1        0.0272
     12 C          -0.4905    1.2272    3.3901 C.3     1  UNL1       -0.0163
     13 H          -0.0966    0.8380    4.3289 H       1  UNL1        0.0349
     14 C           0.3895    0.7647    2.2411 C.3     1  UNL1       -0.0282
     15 H           0.4352   -0.3240    2.2690 H       1  UNL1        0.0312
     16 C           1.7934    1.3037    2.3257 C.3     1  UNL1       -0.0284
     17 H           2.3254    1.0624    1.4054 H       1  UNL1        0.0310
     18 C           2.5762    0.7348    3.5242 C.3     1  UNL1       -0.0458
     19 C           3.7568    1.7197    3.6852 C.3     1  UNL1       -0.0118
     20 C           3.3145    3.0456    3.0387 C.3     1  UNL1        0.1317
     21 C           1.8609    2.8258    2.5427 C.3     1  UNL1        0.0111
     22 C           0.9356    3.2433    3.6888 C.3     1  UNL1       -0.0433
     23 C          -0.4888    2.7602    3.4313 C.3     1  UNL1       -0.0456
     24 C           1.5717    3.5991    1.2546 C.3     1  UNL1       -0.0558
     25 C           3.3505    4.1299    4.0337 C.1     1  UNL1       -0.0704
     26 C           3.3793    4.9946    4.8272 C.1     1  UNL1       -0.1163
     27 O           4.1666    3.3621    1.9361 O.3     1  UNL1       -0.3760
     28 H           0.8682   -0.1617   -0.2871 H       1  UNL1        0.0233
     29 H           1.5703    1.4658   -0.1239 H       1  UNL1        0.0233
     30 H           0.1577    1.2072   -1.1755 H       1  UNL1        0.0233
     31 H          -2.1497    0.7655   -0.0375 H       1  UNL1        0.0313
     32 H          -1.3005   -0.6660    0.5765 H       1  UNL1        0.0313
     33 H          -2.4936   -0.2202    5.0176 H       1  UNL1        0.0314
     34 H          -2.4136    1.5477    5.1308 H       1  UNL1        0.0314
     35 H          -4.4569    1.7236    3.9654 H       1  UNL1        0.0345
     36 H          -4.7598    0.5465    5.1646 H       1  UNL1        0.0345
     37 H          -4.3296    0.7129    1.3402 H       1  UNL1        0.0387
     38 H          -3.8731   -0.9310    1.2735 H       1  UNL1        0.0387
     39 H           1.9557    0.7299    4.4203 H       1  UNL1        0.0269
     40 H           2.9408   -0.2683    3.3031 H       1  UNL1        0.0269
     41 H           3.9731    1.8737    4.7424 H       1  UNL1        0.0303
     42 H           4.6391    1.3314    3.1765 H       1  UNL1        0.0303
     43 H           1.2993    2.8098    4.6205 H       1  UNL1        0.0272
     44 H           0.9363    4.3300    3.7737 H       1  UNL1        0.0272
     45 H          -1.1420    3.1049    4.2329 H       1  UNL1        0.0271
     46 H          -0.8404    3.1518    2.4768 H       1  UNL1        0.0271
     47 H           0.5274    3.4609    0.9745 H       1  UNL1        0.0236
     48 H           1.7674    4.6592    1.4155 H       1  UNL1        0.0236
     49 H           2.2142    3.2281    0.4561 H       1  UNL1        0.0236
     50 H           3.4050    5.7680    5.5369 H       1  UNL1        0.1229
     51 H           5.0943    3.4864    2.1789 H       1  UNL1        0.2114
@<TRIPOS>BOND
     1     1     2    1
     2     1    28    1
     3     1    29    1
     4     1    30    1
     5     2     3    1
     6     2    14    1
     7     2     4    1
     8     4     5    1
     9     4    31    1
    10     4    32    1
    11     5    11    1
    12     5     6    2
    13     6     7    1
    14     6    12    1
    15     7     8    1
    16     7    33    1
    17     7    34    1
    18     8     9    1
    19     8    35    1
    20     8    36    1
    21     9    10    2
    22     9    11    1
    23    11    37    1
    24    11    38    1
    25    12    13    1
    26    12    23    1
    27    12    14    1
    28    14    15    1
    29    14    16    1
    30    16    17    1
    31    16    21    1
    32    16    18    1
    33    18    19    1
    34    18    39    1
    35    18    40    1
    36    19    20    1
    37    19    41    1
    38    19    42    1
    39    20    21    1
    40    20    25    1
    41    20    27    1
    42    21    22    1
    43    21    24    1
    44    22    23    1
    45    22    43    1
    46    22    44    1
    47    23    45    1
    48    23    46    1
    49    24    47    1
    50    24    48    1
    51    24    49    1
    52    25    26    3
    53    26    50    1
    54    27    51    1
