@<TRIPOS>MOLECULE
ZINC13298708
 34 34 0 0 0
SMALL
GASTEIGER

@<TRIPOS>ATOM
      1 C          -4.3379    0.1977    2.4403 C.3     1  UNL1       -0.0653
      2 C          -2.9438   -0.4324    2.4277 C.3     1  UNL1       -0.0556
      3 C          -2.1392    0.1331    1.2556 C.3     1  UNL1       -0.0493
      4 C          -0.7450   -0.4970    1.2429 C.3     1  UNL1       -0.0214
      5 H          -0.8372   -1.5829    1.2231 H       1  UNL1        0.0313
      6 C           0.0178   -0.0728    2.4995 C.3     1  UNL1       -0.0610
      7 C           0.0158   -0.0271    0.0014 C.3     1  UNL1        0.1272
      8 C           0.2337    1.4700    0.1200 C.2     1  UNL1        0.2338
      9 O          -0.6982    2.2375    0.2301 O.2     1  UNL1       -0.2743
     10 N           1.5106    1.9117    0.0918 N.am    1  UNL1       -0.2662
     11 C           2.5577    1.0480   -0.0376 C.2     1  UNL1        0.1496
     12 N           2.4430   -0.2578   -0.1449 N.am    1  UNL1       -0.1584
     13 C           1.2635   -0.8777   -0.1373 C.2     1  UNL1        0.2535
     14 O           1.1900   -2.0866   -0.2387 O.2     1  UNL1       -0.2725
     15 S           4.1358    1.7114   -0.0628 S.3     1  UNL1       -0.1101
     16 C          -0.8730   -0.2836   -1.2172 C.3     1  UNL1       -0.0331
     17 C          -0.1818    0.2493   -2.4738 C.3     1  UNL1       -0.0639
     18 H          -4.9111   -0.2051    3.2754 H       1  UNL1        0.0230
     19 H          -4.2473    1.2784    2.5496 H       1  UNL1        0.0230
     20 H          -4.8487   -0.0313    1.5050 H       1  UNL1        0.0230
     21 H          -3.0344   -1.5131    2.3184 H       1  UNL1        0.0263
     22 H          -2.4330   -0.2034    3.3630 H       1  UNL1        0.0263
     23 H          -2.0485    1.2138    1.3649 H       1  UNL1        0.0268
     24 H          -2.6499   -0.0959    0.3202 H       1  UNL1        0.0268
     25 H           0.0169    1.0145    2.5754 H       1  UNL1        0.0233
     26 H          -0.4652   -0.4988    3.3789 H       1  UNL1        0.0233
     27 H           1.0452   -0.4320    2.4395 H       1  UNL1        0.0233
     28 H           1.6858    2.8629    0.1652 H       1  UNL1        0.1565
     29 H           4.8950    0.5317   -0.2050 H       1  UNL1        0.1096
     30 H          -1.0440   -1.3549   -1.3231 H       1  UNL1        0.0277
     31 H          -1.8277    0.2253   -1.0842 H       1  UNL1        0.0277
     32 H           0.7729   -0.2596   -2.6069 H       1  UNL1        0.0230
     33 H          -0.8150    0.0665   -3.3420 H       1  UNL1        0.0230
     34 H          -0.0109    1.3205   -2.3679 H       1  UNL1        0.0230
@<TRIPOS>BOND
     1     1     2    1
     2     1    18    1
     3     1    19    1
     4     1    20    1
     5     2     3    1
     6     2    21    1
     7     2    22    1
     8     3     4    1
     9     3    23    1
    10     3    24    1
    11     4     5    1
    12     4     6    1
    13     4     7    1
    14     6    25    1
    15     6    26    1
    16     6    27    1
    17     7    13    1
    18     7     8    1
    19     7    16    1
    20     8     9    2
    21     8    10   am
    22    10    11    1
    23    10    28    1
    24    11    12    2
    25    11    15    1
    26    12    13    1
    27    13    14    2
    28    15    29    1
    29    16    17    1
    30    16    30    1
    31    16    31    1
    32    17    32    1
    33    17    33    1
    34    17    34    1
