@<TRIPOS>MOLECULE
ZINC11592783
 92 97 0 0 0
SMALL
GASTEIGER

@<TRIPOS>ATOM
      1 C          -1.7957    6.1440    4.5521 C.3     1  UNL1        0.0332
      2 C          -1.9758    4.7204    4.0918 C.2     1  UNL1        0.3044
      3 O          -2.5846    3.9355    4.7797 O.2     1  UNL1       -0.2512
      4 O          -1.4600    4.3244    2.9175 O.3     1  UNL1       -0.4553
      5 C          -1.6744    2.9399    2.5369 C.3     1  UNL1        0.1508
      6 H          -2.0541    2.3674    3.3837 H       1  UNL1        0.0797
      7 C          -2.6459    2.8468    1.3415 C.3     1  UNL1        0.0199
      8 H          -3.1439    1.8783    1.3326 H       1  UNL1        0.0889
      9 C          -1.7649    3.0101    0.0867 C.3     1  UNL1       -0.0024
     10 C          -0.3324    2.7110    0.5251 C.3     1  UNL1       -0.0238
     11 H           0.1948    3.6998    0.4973 H       1  UNL1        0.0312
     12 C          -0.3539    2.3054    1.9999 C.3     1  UNL1        0.0136
     13 C          -0.5007    0.7977    2.1827 C.3     1  UNL1       -0.0435
     14 C           0.4932    0.0078    1.3544 C.3     1  UNL1       -0.0488
     15 C           0.4483    0.3431   -0.1243 C.3     1  UNL1       -0.0321
     16 H           1.4478   -0.0241   -0.5203 H       1  UNL1        0.0309
     17 C           0.4594    1.8232   -0.3876 C.3     1  UNL1       -0.0341
     18 H           1.5324    2.1229   -0.1660 H       1  UNL1        0.0306
     19 C           0.2945    2.2074   -1.8549 C.3     1  UNL1       -0.0494
     20 C          -0.7428    1.3679   -2.5877 C.3     1  UNL1       -0.0494
     21 C          -0.4581   -0.1169   -2.3897 C.3     1  UNL1       -0.0326
     22 H           0.5706   -0.3184   -2.7090 H       1  UNL1        0.0307
     23 C          -0.5648   -0.4800   -0.9037 C.3     1  UNL1       -0.0209
     24 C          -0.2026   -1.9681   -0.7633 C.3     1  UNL1       -0.0013
     25 C          -1.1447   -2.8341   -1.5960 C.3     1  UNL1        0.0063
     26 H          -2.1706   -2.7471   -1.2453 H       1  UNL1        0.0877
     27 C          -1.0671   -2.4408   -3.0694 C.3     1  UNL1        0.0980
     28 H          -1.7796   -3.0371   -3.6404 H       1  UNL1        0.0650
     29 C          -1.4102   -0.9590   -3.2328 C.3     1  UNL1       -0.0182
     30 O           0.2480   -2.6928   -3.5679 O.3     1  UNL1       -0.3862
     31 C          -1.4959   -5.0948   -2.3917 C.3     1  UNL1       -0.0075
     32 C          -1.0034   -6.5387   -2.2628 C.3     1  UNL1        0.0878
     33 O          -1.1392   -6.9638   -0.9041 O.3     1  UNL1       -0.3693
     34 C          -0.4166   -6.1542    0.0274 C.3     1  UNL1        0.0878
     35 C          -0.9031   -4.7064   -0.0783 C.3     1  UNL1       -0.0075
     36 C          -1.9862   -0.2673   -0.4041 C.3     1  UNL1       -0.0589
     37 C           0.8678    2.8492    2.7609 C.3     1  UNL1       -0.0557
     38 N          -3.6380    3.9283    1.4050 N.4     1  UNL1        0.2509
     39 C          -4.5690    3.8172    0.2618 C.3     1  UNL1       -0.0292
     40 C          -4.8832    5.2810   -0.1361 C.3     1  UNL1       -0.0076
     41 C          -3.5118    5.9692    0.0925 C.3     1  UNL1       -0.0076
     42 C          -2.9553    5.2330    1.3294 C.3     1  UNL1       -0.0292
     43 C          -4.3911    3.8366    2.6629 C.3     1  UNL1       -0.0111
     44 C          -5.5069    4.8496    2.6554 C.2     1  UNL1       -0.0465
     45 C          -6.7411    4.4661    2.8692 C.2     1  UNL1       -0.0977
     46 H          -2.6689    6.7311    4.2678 H       1  UNL1        0.0342
     47 H          -1.6818    6.1638    5.6360 H       1  UNL1        0.0342
     48 H          -0.9059    6.5669    4.0856 H       1  UNL1        0.0342
     49 H          -1.8316    4.0491   -0.2658 H       1  UNL1        0.0324
     50 H          -2.0927    2.3501   -0.7053 H       1  UNL1        0.0324
     51 H          -1.5244    0.4961    1.9804 H       1  UNL1        0.0272
     52 H          -0.3115    0.5725    3.2502 H       1  UNL1        0.0272
     53 H           0.3269   -1.0628    1.5069 H       1  UNL1        0.0268
     54 H           1.5107    0.2207    1.7288 H       1  UNL1        0.0268
     55 H           1.2637    2.1049   -2.3580 H       1  UNL1        0.0268
     56 H           0.0043    3.2626   -1.9122 H       1  UNL1        0.0268
     57 H          -0.6621    1.5876   -3.6640 H       1  UNL1        0.0268
     58 H          -1.7488    1.6176   -2.2751 H       1  UNL1        0.0268
     59 H           0.8235   -2.1158   -1.1039 H       1  UNL1        0.0326
     60 H          -0.2786   -2.2618    0.2814 H       1  UNL1        0.0326
     61 H          -1.2795   -0.6858   -4.2853 H       1  UNL1        0.0295
     62 H          -2.4433   -0.7802   -2.9529 H       1  UNL1        0.0295
     63 H           0.3657   -2.4645   -4.5002 H       1  UNL1        0.2100
     64 H          -2.5572   -5.0491   -2.1477 H       1  UNL1        0.0837
     65 H          -1.3413   -4.7474   -3.4133 H       1  UNL1        0.0837
     66 H           0.0443   -6.5937   -2.5585 H       1  UNL1        0.0613
     67 H          -1.5980   -7.1856   -2.9078 H       1  UNL1        0.0613
     68 H           0.6482   -6.1980   -0.2016 H       1  UNL1        0.0613
     69 H          -0.5874   -6.5226    1.0389 H       1  UNL1        0.0613
     70 H          -0.3158   -4.0755    0.5889 H       1  UNL1        0.0837
     71 H          -1.9548   -4.6537    0.2030 H       1  UNL1        0.0837
     72 H          -2.2212    0.7970   -0.4194 H       1  UNL1        0.0235
     73 H          -2.6823   -0.8024   -1.0500 H       1  UNL1        0.0235
     74 H          -2.0733   -0.6440    0.6150 H       1  UNL1        0.0235
     75 H           0.8751    3.9378    2.7058 H       1  UNL1        0.0236
     76 H           0.8137    2.5386    3.8043 H       1  UNL1        0.0236
     77 H           1.7799    2.4565    2.3116 H       1  UNL1        0.0236
     78 H          -4.0922    3.2928   -0.5663 H       1  UNL1        0.0815
     79 H          -5.4808    3.3020    0.5637 H       1  UNL1        0.0815
     80 H          -5.6472    5.7070    0.5143 H       1  UNL1        0.0319
     81 H          -5.1829    5.3455   -1.1821 H       1  UNL1        0.0319
     82 H          -3.6435    7.0306    0.3027 H       1  UNL1        0.0319
     83 H          -2.8593    5.8238   -0.7684 H       1  UNL1        0.0319
     84 H          -3.1614    5.8121    2.2295 H       1  UNL1        0.0815
     85 H          -1.8811    5.0836    1.2198 H       1  UNL1        0.0815
     86 H          -4.8100    2.8354    2.7634 H       1  UNL1        0.0862
     87 H          -3.7239    4.0372    3.5012 H       1  UNL1        0.0862
     88 H          -5.2890    5.8916    2.4737 H       1  UNL1        0.0619
     89 H          -6.9499    3.4392    3.1307 H       1  UNL1        0.0534
     90 H          -7.5498    5.1768    2.7839 H       1  UNL1        0.0534
     91 N          -0.7152   -4.2437   -1.4697 N.4     1  UNL1        0.2425
     92 H           0.2798   -4.3125   -1.7132 H       1  UNL1        0.2039
@<TRIPOS>UNITY_ATOM_ATTR
38 1
charge 1
91 1
charge 1
@<TRIPOS>BOND
     1     1     2    1
     2     1    46    1
     3     1    47    1
     4     1    48    1
     5     2     3    2
     6     2     4    1
     7     4     5    1
     8     5     6    1
     9     5    12    1
    10     5     7    1
    11     7     8    1
    12     7     9    1
    13     7    38    1
    14     9    10    1
    15     9    49    1
    16     9    50    1
    17    10    11    1
    18    10    17    1
    19    10    12    1
    20    12    13    1
    21    12    37    1
    22    13    14    1
    23    13    51    1
    24    13    52    1
    25    14    15    1
    26    14    53    1
    27    14    54    1
    28    15    16    1
    29    15    23    1
    30    15    17    1
    31    17    18    1
    32    17    19    1
    33    19    20    1
    34    19    55    1
    35    19    56    1
    36    20    21    1
    37    20    57    1
    38    20    58    1
    39    21    22    1
    40    21    29    1
    41    21    23    1
    42    23    24    1
    43    23    36    1
    44    24    25    1
    45    24    59    1
    46    24    60    1
    47    25    26    1
    48    25    27    1
    49    25    91    1
    50    27    28    1
    51    27    29    1
    52    27    30    1
    53    29    61    1
    54    29    62    1
    55    30    63    1
    56    31    32    1
    57    31    64    1
    58    31    65    1
    59    31    91    1
    60    32    33    1
    61    32    66    1
    62    32    67    1
    63    33    34    1
    64    34    35    1
    65    34    68    1
    66    34    69    1
    67    35    70    1
    68    35    71    1
    69    35    91    1
    70    36    72    1
    71    36    73    1
    72    36    74    1
    73    37    75    1
    74    37    76    1
    75    37    77    1
    76    38    42    1
    77    38    39    1
    78    38    43    1
    79    39    40    1
    80    39    78    1
    81    39    79    1
    82    40    41    1
    83    40    80    1
    84    40    81    1
    85    41    42    1
    86    41    82    1
    87    41    83    1
    88    42    84    1
    89    42    85    1
    90    43    44    1
    91    43    86    1
    92    43    87    1
    93    44    45    2
    94    44    88    1
    95    45    89    1
    96    45    90    1
    97    91    92    1
