@<TRIPOS>MOLECULE
ZINC11616164
 62 65 0 0 0
SMALL
GASTEIGER

@<TRIPOS>ATOM
      1 C           1.1691    0.3358    2.2065 C.3     1  UNL1       -0.0594
      2 C           2.0389    1.2153    1.3095 C.3     1  UNL1       -0.0071
      3 H           2.9736    0.7033    1.0760 H       1  UNL1        0.0330
      4 C           2.3419    2.5704    2.0102 C.3     1  UNL1       -0.0437
      5 C           2.3834    3.5315    0.8166 C.3     1  UNL1       -0.0289
      6 H           3.2900    3.2683    0.2253 H       1  UNL1        0.0310
      7 C           2.4280    4.9995    1.0774 C.3     1  UNL1       -0.0284
      8 H           3.4549    5.2336    1.4490 H       1  UNL1        0.0308
      9 C           1.4575    5.5096    2.1386 C.3     1  UNL1       -0.0143
     10 C           2.0411    6.8342    2.6490 C.3     1  UNL1        0.1235
     11 H           1.3033    7.3409    3.2643 H       1  UNL1        0.0699
     12 C           2.3988    7.7117    1.4760 C.2     1  UNL1       -0.0226
     13 C           2.8400    8.9490    1.7745 C.2     1  UNL1       -0.0122
     14 C           3.1923    9.8639    0.6667 C.2     1  UNL1        0.1788
     15 O           3.1355   11.0814    0.7986 O.2     1  UNL1       -0.2879
     16 C           3.6149    9.2448   -0.6117 C.2     1  UNL1       -0.0180
     17 C           3.2575    7.9773   -0.8494 C.2     1  UNL1       -0.0701
     18 C           2.2692    7.2888    0.0529 C.3     1  UNL1        0.0158
     19 C           2.2445    5.8054   -0.2091 C.3     1  UNL1        0.0009
     20 H           3.1725    5.6120   -0.7980 H       1  UNL1        0.0340
     21 C           1.1127    5.3156   -1.0880 C.3     1  UNL1        0.0600
     22 H           0.1397    5.5408   -0.6722 H       1  UNL1        0.0596
     23 C           1.1961    3.7907   -1.3301 C.3     1  UNL1       -0.0178
     24 C           1.1467    3.0907    0.0077 C.3     1  UNL1        0.0094
     25 C           1.2881    1.5626   -0.0018 C.3     1  UNL1        0.1351
     26 C           2.0699    1.0880   -1.1941 C.2     1  UNL1        0.2024
     27 O           2.9094    1.8015   -1.6886 O.2     1  UNL1       -0.2907
     28 C           1.8064   -0.2783   -1.7727 C.3     1  UNL1        0.1530
     29 O           2.6824   -0.4998   -2.9093 O.3     1  UNL1       -0.4570
     30 C           2.5732   -1.6784   -3.5424 C.2     1  UNL1        0.3043
     31 O           1.7721   -2.4978   -3.1595 O.2     1  UNL1       -0.2512
     32 C           3.4497   -1.9795   -4.7307 C.3     1  UNL1        0.0332
     33 O          -0.0110    0.9628    0.0073 O.3     1  UNL1       -0.3801
     34 C          -0.1687    3.4149    0.7220 C.3     1  UNL1       -0.0562
     35 O           1.2193    5.9272   -2.3852 O.3     1  UNL1       -0.3914
     36 C           0.9157    7.8604   -0.3696 C.3     1  UNL1       -0.0519
     37 F           3.1916    6.5753    3.3970 F       1  UNL1       -0.2407
     38 H           0.9250   -0.5884    1.6826 H       1  UNL1        0.0233
     39 H           1.7118    0.1018    3.1223 H       1  UNL1        0.0233
     40 H           0.2498    0.8665    2.4544 H       1  UNL1        0.0233
     41 H           3.3147    2.5335    2.5037 H       1  UNL1        0.0272
     42 H           1.5632    2.8321    2.7171 H       1  UNL1        0.0272
     43 H           1.3785    4.8042    2.9629 H       1  UNL1        0.0299
     44 H           0.4763    5.7090    1.7101 H       1  UNL1        0.0299
     45 H           2.9337    9.2661    2.8158 H       1  UNL1        0.0656
     46 H           4.2634    9.7858   -1.3028 H       1  UNL1        0.0653
     47 H           3.6829    7.4357   -1.6948 H       1  UNL1        0.0582
     48 H           2.1349    3.5842   -1.8466 H       1  UNL1        0.0297
     49 H           0.3551    3.4824   -1.9515 H       1  UNL1        0.0297
     50 H           1.9812   -0.9745   -1.0765 H       1  UNL1        0.0779
     51 H           0.7677   -0.3415   -2.0969 H       1  UNL1        0.0779
     52 H           4.1027   -1.1288   -4.9254 H       1  UNL1        0.0342
     53 H           4.0548   -2.8617   -4.5216 H       1  UNL1        0.0342
     54 H           2.8255   -2.1659   -5.6046 H       1  UNL1        0.0342
     55 H           0.0021   -0.0041    0.0020 H       1  UNL1        0.2108
     56 H          -0.1455    3.0026    1.7308 H       1  UNL1        0.0236
     57 H          -0.2969    4.4960    0.7742 H       1  UNL1        0.0236
     58 H          -0.9998    2.9767    0.1694 H       1  UNL1        0.0236
     59 H           0.5219    5.6657   -3.0019 H       1  UNL1        0.2098
     60 H           0.1241    7.3868    0.2111 H       1  UNL1        0.0241
     61 H           0.9036    8.9356   -0.1911 H       1  UNL1        0.0241
     62 H           0.7543    7.6662   -1.4299 H       1  UNL1        0.0241
@<TRIPOS>BOND
     1     1     2    1
     2     1    38    1
     3     1    39    1
     4     1    40    1
     5     2     3    1
     6     2    25    1
     7     2     4    1
     8     4     5    1
     9     4    41    1
    10     4    42    1
    11     5     6    1
    12     5    24    1
    13     5     7    1
    14     7     8    1
    15     7    19    1
    16     7     9    1
    17     9    10    1
    18     9    43    1
    19     9    44    1
    20    10    11    1
    21    10    12    1
    22    10    37    1
    23    12    18    1
    24    12    13    2
    25    13    14    1
    26    13    45    1
    27    14    15    2
    28    14    16    1
    29    16    17    2
    30    16    46    1
    31    17    18    1
    32    17    47    1
    33    18    19    1
    34    18    36    1
    35    19    20    1
    36    19    21    1
    37    21    22    1
    38    21    23    1
    39    21    35    1
    40    23    24    1
    41    23    48    1
    42    23    49    1
    43    24    25    1
    44    24    34    1
    45    25    26    1
    46    25    33    1
    47    26    27    2
    48    26    28    1
    49    28    29    1
    50    28    50    1
    51    28    51    1
    52    29    30    1
    53    30    31    2
    54    30    32    1
    55    32    52    1
    56    32    53    1
    57    32    54    1
    58    33    55    1
    59    34    56    1
    60    34    57    1
    61    34    58    1
    62    35    59    1
    63    36    60    1
    64    36    61    1
    65    36    62    1
