@<TRIPOS>MOLECULE
ZINC03830938
 21 21 0 0 0
SMALL
GASTEIGER

@<TRIPOS>ATOM
      1 C          -1.2847   -2.0807    0.5258 C.3     1  UNL1       -0.0488
      2 C          -1.3214   -0.5512    0.5406 C.3     1  UNL1        0.0594
      3 H          -1.4703   -0.2012    1.5621 H       1  UNL1        0.0455
      4 C           0.0021   -0.0041    0.0020 C.3     1  UNL1        0.1710
      5 H           0.1761   -0.3710   -1.0095 H       1  UNL1        0.0920
      6 O           1.0855   -0.3946    0.8628 O.3     1  UNL1       -0.3476
      7 C           2.0233    0.6965    0.8844 C.3     1  UNL1        0.0791
      8 C           1.3877    1.7903   -0.0016 C.3     1  UNL1        0.1080
      9 H           1.7878    1.7471   -1.0146 H       1  UNL1        0.0643
     10 O          -0.0175    1.4397    0.0100 O.3     1  UNL1       -0.3425
     11 C           1.6050    3.1761    0.6094 C.3     1  UNL1        0.0727
     12 O           1.0061    4.1658   -0.2295 O.3     1  UNL1       -0.3924
     13 I          -2.9477    0.1429   -0.7033 I       1  UNL1       -0.0768
     14 H          -0.4648   -2.4306    1.1529 H       1  UNL1        0.0241
     15 H          -2.2276   -2.4704    0.9095 H       1  UNL1        0.0241
     16 H          -1.1357   -2.4306   -0.4957 H       1  UNL1        0.0241
     17 H           2.1543    1.0629    1.9026 H       1  UNL1        0.0587
     18 H           2.9809    0.3808    0.4703 H       1  UNL1        0.0587
     19 H           1.1479    3.2130    1.5982 H       1  UNL1        0.0584
     20 H           2.6739    3.3716    0.6957 H       1  UNL1        0.0584
     21 H           1.1052    5.0706    0.0971 H       1  UNL1        0.2095
@<TRIPOS>BOND
     1     1     2    1
     2     1    14    1
     3     1    15    1
     4     1    16    1
     5     2     3    1
     6     2     4    1
     7     2    13    1
     8     4     5    1
     9     4    10    1
    10     4     6    1
    11     6     7    1
    12     7     8    1
    13     7    17    1
    14     7    18    1
    15     8     9    1
    16     8    10    1
    17     8    11    1
    18    11    12    1
    19    11    19    1
    20    11    20    1
    21    12    21    1
