@<TRIPOS>MOLECULE
ZINC03831054
 55 58 0 0 0
SMALL
GASTEIGER

@<TRIPOS>ATOM
      1 C           3.3515   -0.1024   -3.6223 C.3     1  UNL1       -0.0426
      2 C           3.5396   -2.4457   -3.0423 C.3     1  UNL1       -0.0426
      3 C           2.9444   -0.8227   -1.3464 C.3     1  UNL1        0.0465
      4 H           2.7551   -1.7130   -0.7441 H       1  UNL1        0.0939
      5 C           1.8827    0.2305   -1.0170 C.3     1  UNL1        0.0791
      6 H           1.9287    1.0438   -1.7411 H       1  UNL1        0.0423
      7 C           0.5157   -0.4457   -1.0740 C.3     1  UNL1        0.0781
      8 H           0.6431   -1.5119   -0.9004 H       1  UNL1        0.0609
      9 C          -0.4977    0.0899   -0.0928 C.3     1  UNL1        0.0427
     10 H          -0.3873   -0.5641    0.7950 H       1  UNL1        0.0425
     11 C          -1.9077   -0.1289   -0.5500 C.2     1  UNL1       -0.0364
     12 C          -2.2562   -1.3139   -1.0714 C.2     1  UNL1       -0.0942
     13 C          -2.9383    0.9199   -0.4096 C.ar    1  UNL1       -0.0074
     14 C          -4.2283    0.7073   -0.8883 C.ar    1  UNL1       -0.0534
     15 C          -5.1993    1.6783   -0.7259 C.ar    1  UNL1       -0.0577
     16 C          -4.9052    2.8641   -0.0810 C.ar    1  UNL1       -0.0194
     17 C          -3.6220    3.1067    0.3892 C.ar    1  UNL1        0.1282
     18 C          -2.6225    2.1438    0.2102 C.ar    1  UNL1        0.0708
     19 C          -1.2410    2.4093    0.6458 C.2     1  UNL1        0.1972
     20 O          -0.9947    3.4608    1.2148 O.2     1  UNL1       -0.2867
     21 C          -0.2144    1.4584    0.4194 C.2     1  UNL1        0.0503
     22 C           1.0720    1.8166    0.6664 C.2     1  UNL1        0.1412
     23 C           2.1388    0.7742    0.4035 C.3     1  UNL1        0.1960
     24 C           3.4933    1.4570    0.3766 C.2     1  UNL1        0.2109
     25 O           3.6853    2.5489    0.8596 O.2     1  UNL1       -0.2882
     26 C           4.6010    0.7330   -0.2581 C.2     1  UNL1        0.1248
     27 C           4.3341   -0.3388   -1.0708 C.2     1  UNL1        0.1579
     28 O           5.3633   -0.9840   -1.6427 O.2     1  UNL1       -0.5050
     29 C           5.9881    1.1581   -0.0196 C.2     1  UNL1        0.2485
     30 O           6.5286    0.9035    1.0400 O.2     1  UNL1       -0.2702
     31 N           6.6608    1.8298   -0.9749 N.am    1  UNL1       -0.3252
     32 O           2.1047   -0.2701    1.3803 O.3     1  UNL1       -0.3730
     33 O           1.3733    3.0429    1.1238 O.2     1  UNL1       -0.5072
     34 O          -3.3531    4.2761    1.0235 O.3     1  UNL1       -0.5060
     35 O           0.0024   -0.2577   -2.3993 O.3     1  UNL1       -0.3902
     36 H           4.4268   -0.0003   -3.4762 H       1  UNL1        0.0778
     37 H           3.1476   -0.3387   -4.6667 H       1  UNL1        0.0778
     38 H           2.8584    0.8332   -3.3585 H       1  UNL1        0.0778
     39 H           3.1462   -3.2272   -2.3923 H       1  UNL1        0.0778
     40 H           3.3846   -2.7272   -4.0839 H       1  UNL1        0.0778
     41 H           4.6059   -2.3198   -2.8548 H       1  UNL1        0.0778
     42 H          -1.5228   -2.1019   -1.1592 H       1  UNL1        0.0538
     43 H          -3.2702   -1.4805   -1.4036 H       1  UNL1        0.0538
     44 H          -4.4856   -0.2133   -1.3913 H       1  UNL1        0.0624
     45 H          -6.1976    1.5051   -1.1011 H       1  UNL1        0.0619
     46 H          -5.6763    3.6071    0.0577 H       1  UNL1        0.0654
     47 H           6.2219   -0.5508   -1.3687 H       1  UNL1        0.2919
     48 H           6.2064    2.1024   -1.7874 H       1  UNL1        0.1453
     49 H           7.5994    2.0406   -0.8501 H       1  UNL1        0.1453
     50 H           2.2613    0.0325    2.2853 H       1  UNL1        0.2113
     51 H           2.3630    3.1198    1.2443 H       1  UNL1        0.2918
     52 H          -3.0579    4.9841    0.4347 H       1  UNL1        0.2922
     53 H          -0.7872   -0.7812   -2.5931 H       1  UNL1        0.2098
     54 N           2.8138   -1.1865   -2.7735 N.4     1  UNL1        0.2389
     55 H           1.8200   -1.3208   -2.9939 H       1  UNL1        0.2035
@<TRIPOS>UNITY_ATOM_ATTR
54 1
charge 1
@<TRIPOS>BOND
     1     1    36    1
     2     1    37    1
     3     1    38    1
     4     1    54    1
     5     2    39    1
     6     2    40    1
     7     2    41    1
     8     2    54    1
     9     3     4    1
    10     3    27    1
    11     3     5    1
    12     3    54    1
    13     5     6    1
    14     5    23    1
    15     5     7    1
    16     7     8    1
    17     7     9    1
    18     7    35    1
    19     9    10    1
    20     9    21    1
    21     9    11    1
    22    11    12    2
    23    11    13    1
    24    12    42    1
    25    12    43    1
    26    13    18   ar
    27    13    14   ar
    28    14    15   ar
    29    14    44    1
    30    15    16   ar
    31    15    45    1
    32    16    17   ar
    33    16    46    1
    34    17    18   ar
    35    17    34    1
    36    18    19    1
    37    19    20    2
    38    19    21    1
    39    21    22    2
    40    22    23    1
    41    22    33    1
    42    23    24    1
    43    23    32    1
    44    24    25    2
    45    24    26    1
    46    26    27    2
    47    26    29    1
    48    27    28    1
    49    28    47    1
    50    29    30    2
    51    29    31   am
    52    31    48    1
    53    31    49    1
    54    32    50    1
    55    33    51    1
    56    34    52    1
    57    35    53    1
    58    54    55    1
