@<TRIPOS>MOLECULE
ZINC03633221
 19 18 0 0 0
SMALL
GASTEIGER

@<TRIPOS>ATOM
      1 C           4.1073    1.2377    1.9329 C.3     1  UNL1       -0.0493
      2 C           3.9883    1.0119    0.4243 C.3     1  UNL1        0.0102
      3 N           2.5941    0.7186    0.0829 N.am    1  UNL1       -0.3197
      4 C           2.1164   -0.6663    0.0802 C.3     1  UNL1        0.0102
      5 C           2.1731   -1.2226   -1.3439 C.3     1  UNL1       -0.0493
      6 C           1.7511    1.7229   -0.2288 C.2     1  UNL1        0.1061
      7 S           2.3325    3.3303   -0.3236 S.2     1  UNL1       -0.0282
      8 S           0.0505    1.3815   -0.5386 S.3     1  UNL1       -0.1201
      9 H           3.4772    2.0776    2.2253 H       1  UNL1        0.0245
     10 H           3.7849    0.3404    2.4611 H       1  UNL1        0.0245
     11 H           5.1446    1.4559    2.1869 H       1  UNL1        0.0245
     12 H           4.6184    0.1719    0.1318 H       1  UNL1        0.0461
     13 H           4.3107    1.9091   -0.1039 H       1  UNL1        0.0461
     14 H           2.7484   -1.2699    0.7315 H       1  UNL1        0.0461
     15 H           1.0884   -0.6967    0.4415 H       1  UNL1        0.0461
     16 H           3.2010   -1.1922   -1.7052 H       1  UNL1        0.0245
     17 H           1.8176   -2.2530   -1.3459 H       1  UNL1        0.0245
     18 H           1.5410   -0.6190   -1.9952 H       1  UNL1        0.0245
     19 H           0.0680   -0.0270   -0.4748 H       1  UNL1        0.1088
@<TRIPOS>BOND
     1     1     2    1
     2     1     9    1
     3     1    10    1
     4     1    11    1
     5     2     3    1
     6     2    12    1
     7     2    13    1
     8     3     4    1
     9     3     6    1
    10     4     5    1
    11     4    14    1
    12     4    15    1
    13     5    16    1
    14     5    17    1
    15     5    18    1
    16     6     7    2
    17     6     8    1
    18     8    19    1
