@<TRIPOS>MOLECULE
ZINC03830344
 76 82 0 0 0
SMALL
GASTEIGER

@<TRIPOS>ATOM
      1 C          -0.3907    0.6966    5.2702 C.3     1  UNL1       -0.0574
      2 C           0.5356    1.9112    5.3570 C.3     1  UNL1       -0.0088
      3 C           0.3864    2.5693    6.7301 C.3     1  UNL1       -0.0574
      4 C           0.1617    2.9167    4.2662 C.3     1  UNL1       -0.0574
      5 C           1.9851    1.4621    5.1615 C.3     1  UNL1        0.0737
      6 C           2.5028    0.8318    6.4560 C.3     1  UNL1       -0.0352
      7 C           2.0523    0.4334    4.0310 C.3     1  UNL1        0.0214
      8 H           1.3721   -0.3903    4.2477 H       1  UNL1        0.0358
      9 C           1.6570    1.1119    2.6847 C.3     1  UNL1       -0.0331
     10 C           2.4319    0.4012    1.5582 C.3     1  UNL1        0.0278
     11 C           3.8640    0.9194    1.6377 C.3     1  UNL1       -0.0385
     12 C           4.2503    1.0435    3.1329 C.3     1  UNL1       -0.0191
     13 C           3.4939   -0.1067    3.9105 C.3     1  UNL1        0.1120
     14 C           3.5848   -1.2474    2.9622 C.3     1  UNL1        0.1400
     15 H           4.3576   -0.9388    2.2581 H       1  UNL1        0.0771
     16 C           2.4286   -1.0732    1.9670 C.3     1  UNL1        0.0547
     17 C           1.0383   -1.5614    2.2586 C.3     1  UNL1        0.0015
     18 C           0.2542   -1.4288    0.9343 C.3     1  UNL1       -0.0306
     19 C           1.7524    0.4135    0.2104 C.3     1  UNL1       -0.0101
     20 H           1.6937    1.4537   -0.1099 H       1  UNL1        0.0860
     21 C           2.4768   -0.3739   -0.8831 C.3     1  UNL1        0.0165
     22 C           3.0190   -1.6946   -0.4354 C.ar    1  UNL1       -0.0345
     23 C           3.0409   -1.9405    0.9118 C.ar    1  UNL1        0.0120
     24 C           3.7402   -2.9289    1.6130 C.ar    1  UNL1        0.1663
     25 C           4.3138   -3.9216    0.8290 C.ar    1  UNL1        0.1588
     26 C           4.2063   -3.7698   -0.5563 C.ar    1  UNL1       -0.0162
     27 C           3.6011   -2.6912   -1.1910 C.ar    1  UNL1       -0.0544
     28 O           4.9494   -4.9890    1.3822 O.3     1  UNL1       -0.5033
     29 O           3.6863   -2.6472    2.9694 O.3     1  UNL1       -0.4811
     30 C          -0.3822    0.0406   -0.8748 C.3     1  UNL1       -0.0287
     31 C          -1.8773   -0.0967   -0.5802 C.3     1  UNL1       -0.0007
     32 C          -2.6119   -1.2896   -1.1953 C.3     1  UNL1       -0.0450
     33 C          -2.8490    0.1196   -1.7421 C.3     1  UNL1       -0.0450
     34 O           4.0860   -0.4036    5.1767 O.3     1  UNL1       -0.3725
     35 C           5.4748   -0.7325    5.1061 C.3     1  UNL1        0.0373
     36 O           2.7928    2.5922    4.8258 O.3     1  UNL1       -0.3880
     37 H          -0.1243   -0.0198    6.0474 H       1  UNL1        0.0236
     38 H          -1.4233    1.0165    5.4095 H       1  UNL1        0.0236
     39 H          -0.2844    0.2277    4.2920 H       1  UNL1        0.0236
     40 H           1.0464    3.4347    6.7919 H       1  UNL1        0.0236
     41 H          -0.6462    2.8893    6.8694 H       1  UNL1        0.0236
     42 H           0.6528    1.8530    7.5073 H       1  UNL1        0.0236
     43 H           0.0960    2.4041    3.3065 H       1  UNL1        0.0236
     44 H          -0.8014    3.3687    4.5033 H       1  UNL1        0.0236
     45 H           0.9242    3.6938    4.2115 H       1  UNL1        0.0236
     46 H           3.5925    0.8113    6.4397 H       1  UNL1        0.0257
     47 H           2.1632    1.4208    7.3080 H       1  UNL1        0.0257
     48 H           2.1215   -0.1856    6.5425 H       1  UNL1        0.0257
     49 H           1.9179    2.1701    2.7024 H       1  UNL1        0.0277
     50 H           0.5848    0.9971    2.5255 H       1  UNL1        0.0277
     51 H           4.5364    0.2200    1.1409 H       1  UNL1        0.0274
     52 H           3.9289    1.8963    1.1586 H       1  UNL1        0.0274
     53 H           5.3277    0.9251    3.2488 H       1  UNL1        0.0294
     54 H           3.9407    2.0156    3.5166 H       1  UNL1        0.0294
     55 H           0.5782   -0.9446    3.0305 H       1  UNL1        0.0327
     56 H           1.0636   -2.6035    2.5770 H       1  UNL1        0.0327
     57 H          -0.7982   -1.6440    1.1196 H       1  UNL1        0.0815
     58 H           0.6435   -2.1496    0.2153 H       1  UNL1        0.0815
     59 H           3.3034    0.2312   -1.2555 H       1  UNL1        0.0368
     60 H           1.7811   -0.5459   -1.7044 H       1  UNL1        0.0368
     61 H           4.6242   -4.5470   -1.1790 H       1  UNL1        0.0655
     62 H           3.5863   -2.6340   -2.2693 H       1  UNL1        0.0622
     63 H           4.3719   -5.7457    1.5525 H       1  UNL1        0.2923
     64 H          -0.1882    1.0149   -1.3232 H       1  UNL1        0.0817
     65 H          -0.0742   -0.7448   -1.5649 H       1  UNL1        0.0817
     66 H          -2.1939    0.2341    0.4089 H       1  UNL1        0.0352
     67 H          -2.0300   -1.9765   -1.8099 H       1  UNL1        0.0270
     68 H          -3.4119   -1.7439   -0.6108 H       1  UNL1        0.0270
     69 H          -3.8050    0.5924   -1.5173 H       1  UNL1        0.0270
     70 H          -2.4231    0.3597   -2.7163 H       1  UNL1        0.0270
     71 H           5.6085   -1.6108    4.4746 H       1  UNL1        0.0524
     72 H           6.0259    0.1070    4.6823 H       1  UNL1        0.0524
     73 H           5.8493   -0.9446    6.1075 H       1  UNL1        0.0524
     74 H           2.5215    3.0422    4.0140 H       1  UNL1        0.2102
     75 N           0.3377   -0.0389    0.4013 N.4     1  UNL1        0.2383
     76 H          -0.1130    0.5915    1.0749 H       1  UNL1        0.2036
@<TRIPOS>UNITY_ATOM_ATTR
75 1
charge 1
@<TRIPOS>BOND
     1     1     2    1
     2     1    37    1
     3     1    38    1
     4     1    39    1
     5     2     3    1
     6     2     4    1
     7     2     5    1
     8     3    40    1
     9     3    41    1
    10     3    42    1
    11     4    43    1
    12     4    44    1
    13     4    45    1
    14     5     6    1
    15     5     7    1
    16     5    36    1
    17     6    46    1
    18     6    47    1
    19     6    48    1
    20     7     8    1
    21     7    13    1
    22     7     9    1
    23     9    10    1
    24     9    49    1
    25     9    50    1
    26    10    16    1
    27    10    19    1
    28    10    11    1
    29    11    12    1
    30    11    51    1
    31    11    52    1
    32    12    13    1
    33    12    53    1
    34    12    54    1
    35    13    14    1
    36    13    34    1
    37    14    15    1
    38    14    29    1
    39    14    16    1
    40    16    23    1
    41    16    17    1
    42    17    18    1
    43    17    55    1
    44    17    56    1
    45    18    57    1
    46    18    58    1
    47    18    75    1
    48    19    20    1
    49    19    21    1
    50    19    75    1
    51    21    22    1
    52    21    59    1
    53    21    60    1
    54    22    27   ar
    55    22    23   ar
    56    23    24   ar
    57    24    25   ar
    58    24    29    1
    59    25    26   ar
    60    25    28    1
    61    26    27   ar
    62    26    61    1
    63    27    62    1
    64    28    63    1
    65    30    31    1
    66    30    64    1
    67    30    65    1
    68    30    75    1
    69    31    33    1
    70    31    32    1
    71    31    66    1
    72    32    33    1
    73    32    67    1
    74    32    68    1
    75    33    69    1
    76    33    70    1
    77    34    35    1
    78    35    71    1
    79    35    72    1
    80    35    73    1
    81    36    74    1
    82    75    76    1
