@<TRIPOS>MOLECULE
ZINC07996837
 46 49 0 0 0
SMALL
GASTEIGER

@<TRIPOS>ATOM
      1 C           4.5666    0.4084    1.9733 C.3     1  UNL1       -0.0565
      2 C           4.8318    0.1133    0.4956 C.3     1  UNL1        0.0091
      3 H           5.7798   -0.4143    0.3898 H       1  UNL1        0.0361
      4 C           4.8799    1.4228   -0.2912 C.3     1  UNL1       -0.0134
      5 H           5.7465    1.9795    0.0653 H       1  UNL1        0.0857
      6 C           3.6413    2.2498    0.0066 C.3     1  UNL1        0.0161
      7 C           2.3884    1.4161   -0.0105 C.ar    1  UNL1       -0.0381
      8 C           1.1692    2.0853    0.0021 C.ar    1  UNL1       -0.0547
      9 C          -0.0167    1.3834    0.0096 C.ar    1  UNL1       -0.0199
     10 C           0.0021   -0.0041    0.0020 C.ar    1  UNL1        0.1172
     11 C           1.2157   -0.6710   -0.0197 C.ar    1  UNL1       -0.0162
     12 C           2.4061    0.0402   -0.0285 C.ar    1  UNL1       -0.0340
     13 C           3.6964   -0.7448   -0.0721 C.3     1  UNL1        0.0058
     14 C           4.0128   -1.0255   -1.5520 C.3     1  UNL1       -0.0027
     15 C           4.0223    0.3181   -2.2898 C.3     1  UNL1       -0.0308
     16 C           5.1544    2.4492   -2.4561 C.3     1  UNL1       -0.0287
     17 C           5.6530    2.1746   -3.8763 C.3     1  UNL1       -0.0007
     18 C           7.0036    2.7704   -4.2785 C.3     1  UNL1       -0.0450
     19 C           5.7093    3.3566   -4.8462 C.3     1  UNL1       -0.0450
     20 C           3.5555   -2.0546    0.7061 C.3     1  UNL1       -0.0549
     21 O          -1.1628   -0.7039    0.0153 O.3     1  UNL1       -0.5068
     22 H           4.5110   -0.5290    2.5267 H       1  UNL1        0.0235
     23 H           5.3764    1.0188    2.3730 H       1  UNL1        0.0235
     24 H           3.6235    0.9457    2.0729 H       1  UNL1        0.0235
     25 H           3.7489    2.7077    0.9899 H       1  UNL1        0.0368
     26 H           3.5521    3.0367   -0.7424 H       1  UNL1        0.0368
     27 H           1.1517    3.1651    0.0060 H       1  UNL1        0.0622
     28 H          -0.9585    1.9119    0.0170 H       1  UNL1        0.0654
     29 H           1.2351   -1.7507   -0.0295 H       1  UNL1        0.0657
     30 H           4.9901   -1.5007   -1.6371 H       1  UNL1        0.0325
     31 H           3.2472   -1.6748   -1.9767 H       1  UNL1        0.0325
     32 H           4.2314    0.1509   -3.3464 H       1  UNL1        0.0815
     33 H           3.0493    0.7977   -2.1835 H       1  UNL1        0.0815
     34 H           4.1720    2.9193   -2.5005 H       1  UNL1        0.0817
     35 H           5.8528    3.1142   -1.9481 H       1  UNL1        0.0817
     36 H           5.3907    1.1993   -4.2863 H       1  UNL1        0.0352
     37 H           7.5370    3.3581   -3.5313 H       1  UNL1        0.0270
     38 H           7.6302    2.1871   -4.9531 H       1  UNL1        0.0270
     39 H           5.4845    3.1588   -5.8942 H       1  UNL1        0.0270
     40 H           5.3912    4.3299   -4.4724 H       1  UNL1        0.0270
     41 H           2.7609   -2.6560    0.2645 H       1  UNL1        0.0238
     42 H           4.4950   -2.6057    0.6630 H       1  UNL1        0.0238
     43 H           3.3103   -1.8352    1.7453 H       1  UNL1        0.0238
     44 H          -1.5128   -0.9018   -0.8641 H       1  UNL1        0.2921
     45 N           5.0991    1.1716   -1.7319 N.4     1  UNL1        0.2380
     46 H           5.9961    0.6855   -1.8481 H       1  UNL1        0.2036
@<TRIPOS>UNITY_ATOM_ATTR
45 1
charge 1
@<TRIPOS>BOND
     1     1     2    1
     2     1    22    1
     3     1    23    1
     4     1    24    1
     5     2     3    1
     6     2    13    1
     7     2     4    1
     8     4     5    1
     9     4     6    1
    10     4    45    1
    11     6     7    1
    12     6    25    1
    13     6    26    1
    14     7    12   ar
    15     7     8   ar
    16     8     9   ar
    17     8    27    1
    18     9    10   ar
    19     9    28    1
    20    10    11   ar
    21    10    21    1
    22    11    12   ar
    23    11    29    1
    24    12    13    1
    25    13    14    1
    26    13    20    1
    27    14    15    1
    28    14    30    1
    29    14    31    1
    30    15    32    1
    31    15    33    1
    32    15    45    1
    33    16    17    1
    34    16    34    1
    35    16    35    1
    36    16    45    1
    37    17    19    1
    38    17    18    1
    39    17    36    1
    40    18    19    1
    41    18    37    1
    42    18    38    1
    43    19    39    1
    44    19    40    1
    45    20    41    1
    46    20    42    1
    47    20    43    1
    48    21    44    1
    49    45    46    1
