@<TRIPOS>MOLECULE
ZINC00000853
 45 46 0 0 0
SMALL
GASTEIGER

@<TRIPOS>ATOM
      1 C          -0.0127    1.0858    0.0080 C.3     1  UNL1       -0.0433
      2 C          -0.0162    1.0911    2.4293 C.3     1  UNL1       -0.0433
      3 C          -0.8223    3.0235    1.2133 C.3     1  UNL1       -0.0265
      4 C          -1.7485    3.4554    0.0746 C.3     1  UNL1        0.0321
      5 H          -1.3811    3.0478   -0.8671 H       1  UNL1        0.0384
      6 C          -3.1615    2.9321    0.3401 C.3     1  UNL1       -0.0424
      7 C          -4.0877    3.3641   -0.7985 C.3     1  UNL1       -0.0524
      8 C          -4.1166    4.8916   -0.8807 C.3     1  UNL1       -0.0501
      9 C          -2.7036    5.4149   -1.1463 C.3     1  UNL1       -0.0194
     10 C          -1.7775    4.9829   -0.0076 C.3     1  UNL1        0.0987
     11 C          -0.3857    5.4984   -0.2692 C.ar    1  UNL1       -0.0122
     12 C           0.5135    4.7279   -0.9835 C.ar    1  UNL1       -0.0556
     13 C           1.7909    5.1979   -1.2250 C.ar    1  UNL1       -0.0580
     14 C           2.1723    6.4392   -0.7531 C.ar    1  UNL1       -0.0199
     15 C           1.2721    7.2142   -0.0368 C.ar    1  UNL1        0.1204
     16 C          -0.0111    6.7424    0.1998 C.ar    1  UNL1       -0.0140
     17 O           1.6447    8.4357    0.4280 O.3     1  UNL1       -0.4951
     18 C           2.9792    8.8591    0.1422 C.3     1  UNL1        0.0788
     19 O          -2.2592    5.5174    1.2270 O.3     1  UNL1       -0.3835
     20 H           0.0021   -0.0041    0.0020 H       1  UNL1        0.0777
     21 H           1.0099    1.4631    0.0003 H       1  UNL1        0.0777
     22 H          -0.5399    1.4469   -0.8751 H       1  UNL1        0.0777
     23 H           0.9826    1.5252    2.4736 H       1  UNL1        0.0777
     24 H          -0.5844    1.3965    3.3079 H       1  UNL1        0.0777
     25 H           0.0607    0.0041    2.4061 H       1  UNL1        0.0777
     26 H          -1.2371    3.3557    2.1649 H       1  UNL1        0.0818
     27 H           0.1618    3.4698    1.0703 H       1  UNL1        0.0818
     28 H          -3.1408    1.8439    0.3988 H       1  UNL1        0.0271
     29 H          -3.5289    3.3398    1.2819 H       1  UNL1        0.0271
     30 H          -3.7202    2.9564   -1.7402 H       1  UNL1        0.0265
     31 H          -5.0943    2.9912   -0.6093 H       1  UNL1        0.0265
     32 H          -4.7765    5.1993   -1.6919 H       1  UNL1        0.0266
     33 H          -4.4841    5.2993    0.0610 H       1  UNL1        0.0266
     34 H          -2.3362    5.0072   -2.0880 H       1  UNL1        0.0296
     35 H          -2.7243    6.5031   -1.2049 H       1  UNL1        0.0296
     36 H           0.2174    3.7572   -1.3529 H       1  UNL1        0.0621
     37 H           2.4915    4.5942   -1.7828 H       1  UNL1        0.0619
     38 H           3.1704    6.8060   -0.9421 H       1  UNL1        0.0654
     39 H          -0.7152    7.3456    0.7537 H       1  UNL1        0.0658
     40 H           3.1457    9.8483    0.5687 H       1  UNL1        0.0660
     41 H           3.6857    8.1523    0.5772 H       1  UNL1        0.0660
     42 H           3.1242    8.8999   -0.9374 H       1  UNL1        0.0660
     43 H          -2.3042    6.4832    1.2466 H       1  UNL1        0.2106
     44 N          -0.7268    1.5485    1.2166 N.4     1  UNL1        0.2312
     45 H          -1.6743    1.1530    1.2161 H       1  UNL1        0.2028
@<TRIPOS>UNITY_ATOM_ATTR
44 1
charge 1
@<TRIPOS>BOND
     1     1    20    1
     2     1    21    1
     3     1    22    1
     4     1    44    1
     5     2    23    1
     6     2    24    1
     7     2    25    1
     8     2    44    1
     9     3     4    1
    10     3    26    1
    11     3    27    1
    12     3    44    1
    13     4     5    1
    14     4    10    1
    15     4     6    1
    16     6     7    1
    17     6    28    1
    18     6    29    1
    19     7     8    1
    20     7    30    1
    21     7    31    1
    22     8     9    1
    23     8    32    1
    24     8    33    1
    25     9    10    1
    26     9    34    1
    27     9    35    1
    28    10    11    1
    29    10    19    1
    30    11    16   ar
    31    11    12   ar
    32    12    13   ar
    33    12    36    1
    34    13    14   ar
    35    13    37    1
    36    14    15   ar
    37    14    38    1
    38    15    16   ar
    39    15    17    1
    40    16    39    1
    41    17    18    1
    42    18    40    1
    43    18    41    1
    44    18    42    1
    45    19    43    1
    46    44    45    1
