@<TRIPOS>MOLECULE
ZINC00074709
 17 18 0 0 0
SMALL
GASTEIGER

@<TRIPOS>ATOM
      1 C          -0.0126    1.0758    0.0080 C.ar    1  UNL1       -0.0610
      2 C           1.1826    1.7808    0.0003 C.ar    1  UNL1       -0.0582
      3 C           1.1861    3.1599    0.0077 C.ar    1  UNL1       -0.0186
      4 C          -0.0174    3.8536    0.0229 C.ar    1  UNL1        0.1390
      5 C          -1.2262    3.1360    0.0306 C.ar    1  UNL1        0.0176
      6 C          -1.2081    1.7378    0.0173 C.ar    1  UNL1       -0.0511
      7 C          -2.4920    3.8755    0.0472 C.ar    1  UNL1       -0.0443
      8 C          -2.4417    5.2316    0.0544 C.ar    1  UNL1        0.0236
      9 C          -1.1915    5.8874    0.0460 C.ar    1  UNL1        0.3372
     10 O          -1.1599    7.1047    0.0522 O.2     1  UNL1       -0.2452
     11 O          -0.0370    5.2035    0.0308 O.2     1  UNL1       -0.4222
     12 H           0.0021   -0.0041    0.0020 H       1  UNL1        0.0618
     13 H           2.1197    1.2440   -0.0119 H       1  UNL1        0.0619
     14 H           2.1218    3.6990    0.0020 H       1  UNL1        0.0654
     15 H          -2.1349    1.1834    0.0186 H       1  UNL1        0.0625
     16 H          -3.4384    3.3553    0.0531 H       1  UNL1        0.0627
     17 H          -3.3553    5.8075    0.0662 H       1  UNL1        0.0689
@<TRIPOS>BOND
     1     1     6   ar
     2     1     2   ar
     3     1    12    1
     4     2     3   ar
     5     2    13    1
     6     3     4   ar
     7     3    14    1
     8     4    11   ar
     9     4     5   ar
    10     5     6   ar
    11     5     7   ar
    12     6    15    1
    13     7     8   ar
    14     7    16    1
    15     8     9   ar
    16     8    17    1
    17     9    10    2
    18     9    11   ar
