@<TRIPOS>MOLECULE
ZINC01081579
 53 57 0 0 0
SMALL
GASTEIGER

@<TRIPOS>ATOM
      1 C          -4.9446    5.3771   -1.0359 C.3     1  UNL1       -0.0643
      2 C          -3.6206    5.6415   -0.3161 C.3     1  UNL1       -0.0411
      3 C          -2.6208    4.5374   -0.6655 C.3     1  UNL1        0.0396
      4 C          -2.4262    4.4956   -2.1831 C.3     1  UNL1       -0.0335
      5 C          -1.6824    5.7528   -2.6389 C.3     1  UNL1       -0.0115
      6 C          -0.3216    5.7986   -1.9528 C.3     1  UNL1       -0.0312
      7 C          -1.3082    4.8054    0.0521 C.3     1  UNL1        0.0303
      8 H          -1.5189    5.0257    1.0986 H       1  UNL1        0.0928
      9 C          -0.4882    3.5392   -0.0010 C.ar    1  UNL1        0.0770
     10 C           0.8497    3.4958   -0.0727 C.ar    1  UNL1       -0.0080
     11 C           1.2022    2.0934   -0.1132 C.ar    1  UNL1        0.0040
     12 C           2.4307    1.4291   -0.1743 C.ar    1  UNL1       -0.0523
     13 C           2.4005    0.0572   -0.2002 C.ar    1  UNL1       -0.0611
     14 C           1.2110   -0.6518   -0.1683 C.ar    1  UNL1       -0.0598
     15 C          -0.0203   -0.0246   -0.1071 C.ar    1  UNL1       -0.0372
     16 C          -0.0260    1.3689   -0.0779 C.ar    1  UNL1        0.0547
     17 N          -1.0346    2.2761   -0.0122 N.ar    1  UNL1       -0.3018
     18 C          -2.4348    2.1364    0.0407 C.2     1  UNL1        0.1286
     19 C          -3.1906    3.2020   -0.2520 C.2     1  UNL1       -0.0412
     20 C          -3.0523    0.8500    0.4100 C.2     1  UNL1        0.3559
     21 O          -3.0827    0.5027    1.5740 O.2     1  UNL1       -0.2433
     22 O          -3.5831    0.0590   -0.5433 O.3     1  UNL1       -0.4604
     23 C          -4.1744   -1.1933   -0.1069 C.3     1  UNL1        0.0900
     24 C          -4.7204   -1.9494   -1.3198 C.3     1  UNL1       -0.0306
     25 C           1.6916    4.7410   -0.0924 C.3     1  UNL1        0.0152
     26 C           0.8163    5.9673    0.1631 C.3     1  UNL1       -0.0271
     27 H          -4.7768    5.3663   -2.1129 H       1  UNL1        0.0230
     28 H          -5.3433    4.4128   -0.7207 H       1  UNL1        0.0230
     29 H          -5.6569    6.1637   -0.7870 H       1  UNL1        0.0230
     30 H          -3.7884    5.6522    0.7609 H       1  UNL1        0.0273
     31 H          -3.2220    6.6058   -0.6313 H       1  UNL1        0.0273
     32 H          -1.8452    3.6130   -2.4506 H       1  UNL1        0.0277
     33 H          -3.3991    4.4517   -2.6728 H       1  UNL1        0.0277
     34 H          -1.5605    5.7363   -3.7219 H       1  UNL1        0.0317
     35 H          -2.2436    6.6397   -2.3444 H       1  UNL1        0.0317
     36 H           0.2467    6.6609   -2.3016 H       1  UNL1        0.0814
     37 H           0.2136    4.8832   -2.2053 H       1  UNL1        0.0814
     38 H           3.3638    1.9723   -0.2003 H       1  UNL1        0.0624
     39 H           3.3327   -0.4861   -0.2473 H       1  UNL1        0.0618
     40 H           1.2461   -1.7310   -0.1924 H       1  UNL1        0.0618
     41 H          -0.9394   -0.5913   -0.0832 H       1  UNL1        0.0638
     42 H          -4.2640    3.1008   -0.1894 H       1  UNL1        0.0602
     43 H          -3.4163   -1.7999    0.3883 H       1  UNL1        0.0695
     44 H          -4.9874   -0.9880    0.5895 H       1  UNL1        0.0695
     45 H          -5.1643   -2.8895   -0.9922 H       1  UNL1        0.0262
     46 H          -5.4786   -1.3427   -1.8150 H       1  UNL1        0.0262
     47 H          -3.9074   -2.1547   -2.0161 H       1  UNL1        0.0262
     48 H           2.4552    4.6738    0.6826 H       1  UNL1        0.0366
     49 H           2.1719    4.8377   -1.0661 H       1  UNL1        0.0366
     50 H           0.6608    6.0707    1.2369 H       1  UNL1        0.0818
     51 H           1.3368    6.8529   -0.2016 H       1  UNL1        0.0818
     52 N          -0.5006    5.9270   -0.4878 N.4     1  UNL1        0.2426
     53 H          -0.9935    6.8064   -0.2928 H       1  UNL1        0.2041
@<TRIPOS>UNITY_ATOM_ATTR
52 1
charge 1
@<TRIPOS>BOND
     1     1     2    1
     2     1    27    1
     3     1    28    1
     4     1    29    1
     5     2     3    1
     6     2    30    1
     7     2    31    1
     8     3     7    1
     9     3    19    1
    10     3     4    1
    11     4     5    1
    12     4    32    1
    13     4    33    1
    14     5     6    1
    15     5    34    1
    16     5    35    1
    17     6    36    1
    18     6    37    1
    19     6    52    1
    20     7     8    1
    21     7     9    1
    22     7    52    1
    23     9    17   ar
    24     9    10   ar
    25    10    11   ar
    26    10    25    1
    27    11    16   ar
    28    11    12   ar
    29    12    13   ar
    30    12    38    1
    31    13    14   ar
    32    13    39    1
    33    14    15   ar
    34    14    40    1
    35    15    16   ar
    36    15    41    1
    37    16    17   ar
    38    17    18    1
    39    18    19    2
    40    18    20    1
    41    19    42    1
    42    20    21    2
    43    20    22    1
    44    22    23    1
    45    23    24    1
    46    23    43    1
    47    23    44    1
    48    24    45    1
    49    24    46    1
    50    24    47    1
    51    25    26    1
    52    25    48    1
    53    25    49    1
    54    26    50    1
    55    26    51    1
    56    26    52    1
    57    52    53    1
