@<TRIPOS>MOLECULE
ZINC11592716
 68 70 0 0 0
SMALL
GASTEIGER

@<TRIPOS>ATOM
      1 C           7.4209    0.9150   -3.6445 C.3     1  UNL1       -0.0643
      2 C           6.7262    1.1573   -2.3030 C.3     1  UNL1       -0.0406
      3 C           5.2109    1.0539   -2.4873 C.3     1  UNL1        0.0619
      4 C           4.8538   -0.3421   -3.0017 C.3     1  UNL1       -0.0497
      5 C           4.7473    2.1041   -3.4987 C.3     1  UNL1       -0.0497
      6 C           4.5267    1.2925   -1.1660 C.2     1  UNL1        0.3130
      7 O           5.1837    1.5218   -0.1782 O.2     1  UNL1       -0.2502
      8 O           3.1874    1.2504   -1.0864 O.3     1  UNL1       -0.4603
      9 C           2.5967    1.4897    0.2183 C.3     1  UNL1        0.1106
     10 H           3.2554    2.1425    0.7912 H       1  UNL1        0.0740
     11 C           2.4562    0.1577    0.9521 C.3     1  UNL1       -0.0090
     12 C           1.5147   -0.7438    0.1415 C.3     1  UNL1       -0.0218
     13 H           1.9118   -0.8832   -0.8639 H       1  UNL1        0.0342
     14 C           0.1733   -0.0611    0.0705 C.2     1  UNL1       -0.0775
     15 C           0.0802    1.2555    0.0484 C.2     1  UNL1       -0.0444
     16 C           1.2640    2.1766    0.0354 C.3     1  UNL1        0.0243
     17 H           1.2807    2.6761   -0.9333 H       1  UNL1        0.0388
     18 C           1.0331    3.2656    1.0855 C.3     1  UNL1       -0.0247
     19 H           1.8982    3.9277    1.1220 H       1  UNL1        0.0313
     20 C          -0.2125    4.0643    0.6980 C.3     1  UNL1       -0.0219
     21 H           0.0107    4.6659   -0.1831 H       1  UNL1        0.0343
     22 C          -1.3734    3.1665    0.3958 C.2     1  UNL1       -0.0806
     23 C          -1.2598    1.8855    0.0904 C.2     1  UNL1       -0.0621
     24 C          -0.5894    4.9932    1.8539 C.3     1  UNL1       -0.0587
     25 C           0.8229    2.6200    2.4566 C.3     1  UNL1       -0.0457
     26 C          -0.5175    1.8824    2.4729 C.3     1  UNL1       -0.0153
     27 C          -0.7963    1.3622    3.8845 C.3     1  UNL1        0.1054
     28 H           0.0408    0.7492    4.2187 H       1  UNL1        0.0734
     29 C          -2.0755    0.5208    3.8764 C.3     1  UNL1        0.0109
     30 C          -2.3801    0.0461    5.3006 C.3     1  UNL1        0.0686
     31 H          -3.2925   -0.5502    5.2991 H       1  UNL1        0.0600
     32 C          -2.5684    1.2705    6.2045 C.3     1  UNL1        0.0710
     33 C          -1.3647    2.1726    6.0431 C.2     1  UNL1        0.3098
     34 O          -0.7739    2.5990    7.0070 O.2     1  UNL1       -0.2507
     35 O          -0.9681    2.4869    4.7920 O.3     1  UNL1       -0.4612
     36 O          -1.2915   -0.7430    5.7848 O.3     1  UNL1       -0.3911
     37 C           1.3702   -2.0996    0.8356 C.3     1  UNL1       -0.0588
     38 H           8.5004    0.9887   -3.5132 H       1  UNL1        0.0230
     39 H           7.1665   -0.0795   -4.0110 H       1  UNL1        0.0230
     40 H           7.0906    1.6632   -4.3651 H       1  UNL1        0.0230
     41 H           6.9806    2.1518   -1.9365 H       1  UNL1        0.0273
     42 H           7.0565    0.4091   -1.5825 H       1  UNL1        0.0273
     43 H           3.7743   -0.4158   -3.1330 H       1  UNL1        0.0240
     44 H           5.3487   -0.5148   -3.9574 H       1  UNL1        0.0240
     45 H           5.1841   -1.0903   -2.2812 H       1  UNL1        0.0240
     46 H           5.0017    3.0986   -3.1323 H       1  UNL1        0.0240
     47 H           5.2421    1.9315   -4.4544 H       1  UNL1        0.0240
     48 H           3.6677    2.0304   -3.6300 H       1  UNL1        0.0240
     49 H           2.0380    0.3274    1.9443 H       1  UNL1        0.0307
     50 H           3.4329   -0.3177    1.0417 H       1  UNL1        0.0307
     51 H          -0.7260   -0.6583    0.0367 H       1  UNL1        0.0578
     52 H          -2.3651    3.5927    0.4296 H       1  UNL1        0.0575
     53 H          -2.1408    1.3003   -0.1281 H       1  UNL1        0.0617
     54 H           0.1999    5.7305    1.9997 H       1  UNL1        0.0235
     55 H          -1.5242    5.5029    1.6204 H       1  UNL1        0.0235
     56 H          -0.7126    4.4078    2.7651 H       1  UNL1        0.0235
     57 H           1.6290    1.9131    2.6529 H       1  UNL1        0.0269
     58 H           0.8218    3.3925    3.2256 H       1  UNL1        0.0269
     59 H          -1.3121    2.5660    2.1741 H       1  UNL1        0.0301
     60 H          -0.4791    1.0438    1.7777 H       1  UNL1        0.0301
     61 H          -2.9055    1.1244    3.5089 H       1  UNL1        0.0326
     62 H          -1.9382   -0.3434    3.2265 H       1  UNL1        0.0326
     63 H          -3.4711    1.8071    5.9123 H       1  UNL1        0.0403
     64 H          -2.6515    0.9507    7.2432 H       1  UNL1        0.0403
     65 H          -1.4173   -1.0775    6.6833 H       1  UNL1        0.2098
     66 H           0.6774   -2.7244    0.2719 H       1  UNL1        0.0235
     67 H           2.3433   -2.5885    0.8840 H       1  UNL1        0.0235
     68 H           0.9871   -1.9519    1.8453 H       1  UNL1        0.0235
@<TRIPOS>BOND
     1     1     2    1
     2     1    38    1
     3     1    39    1
     4     1    40    1
     5     2     3    1
     6     2    41    1
     7     2    42    1
     8     3     4    1
     9     3     5    1
    10     3     6    1
    11     4    43    1
    12     4    44    1
    13     4    45    1
    14     5    46    1
    15     5    47    1
    16     5    48    1
    17     6     7    2
    18     6     8    1
    19     8     9    1
    20     9    10    1
    21     9    16    1
    22     9    11    1
    23    11    12    1
    24    11    49    1
    25    11    50    1
    26    12    13    1
    27    12    14    1
    28    12    37    1
    29    14    15    2
    30    14    51    1
    31    15    23    1
    32    15    16    1
    33    16    17    1
    34    16    18    1
    35    18    19    1
    36    18    20    1
    37    18    25    1
    38    20    21    1
    39    20    22    1
    40    20    24    1
    41    22    23    2
    42    22    52    1
    43    23    53    1
    44    24    54    1
    45    24    55    1
    46    24    56    1
    47    25    26    1
    48    25    57    1
    49    25    58    1
    50    26    27    1
    51    26    59    1
    52    26    60    1
    53    27    28    1
    54    27    35    1
    55    27    29    1
    56    29    30    1
    57    29    61    1
    58    29    62    1
    59    30    31    1
    60    30    32    1
    61    30    36    1
    62    32    33    1
    63    32    63    1
    64    32    64    1
    65    33    34    2
    66    33    35    1
    67    36    65    1
    68    37    66    1
    69    37    67    1
    70    37    68    1
