@<TRIPOS>MOLECULE
ZINC00896873
 29 30 0 0 0
SMALL
GASTEIGER

@<TRIPOS>ATOM
      1 C          -0.0127    1.0858    0.0080 C.3     1  UNL1       -0.0189
      2 C          -0.7288    1.5792    1.2668 C.3     1  UNL1        0.0056
      3 H          -0.7453    2.6691    1.2726 H       1  UNL1        0.0877
      4 C           0.0110    1.0725    2.5077 C.3     1  UNL1        0.1259
      5 H          -0.4676    1.4680    3.4036 H       1  UNL1        0.0703
      6 O          -0.0346   -0.3567    2.5332 O.3     1  UNL1       -0.3611
      7 C          -1.3614   -0.8902    2.5479 C.3     1  UNL1        0.0885
      8 C          -2.1152   -0.4034    1.3074 C.3     1  UNL1       -0.0093
      9 C           1.4460    1.5303    2.4599 C.ar    1  UNL1       -0.0135
     10 C           2.3637    0.8478    1.6835 C.ar    1  UNL1       -0.0559
     11 C           3.6789    1.2709    1.6356 C.ar    1  UNL1       -0.0614
     12 C           4.0787    2.3697    2.3729 C.ar    1  UNL1       -0.0617
     13 C           3.1621    3.0490    3.1534 C.ar    1  UNL1       -0.0614
     14 C           1.8457    2.6294    3.1969 C.ar    1  UNL1       -0.0559
     15 H           0.0021   -0.0041    0.0020 H       1  UNL1        0.0285
     16 H           1.0099    1.4631    0.0003 H       1  UNL1        0.0285
     17 H          -0.5399    1.4469   -0.8751 H       1  UNL1        0.0285
     18 H          -1.3159   -1.9792    2.5420 H       1  UNL1        0.0614
     19 H          -1.8799   -0.5518    3.4450 H       1  UNL1        0.0614
     20 H          -1.6272   -0.7866    0.4113 H       1  UNL1        0.0837
     21 H          -3.1441   -0.7614    1.3429 H       1  UNL1        0.0837
     22 H           2.0524   -0.0136    1.1112 H       1  UNL1        0.0621
     23 H           4.3949    0.7403    1.0256 H       1  UNL1        0.0618
     24 H           5.1072    2.6975    2.3389 H       1  UNL1        0.0618
     25 H           3.4745    3.9075    3.7295 H       1  UNL1        0.0618
     26 H           1.1297    3.1599    3.8069 H       1  UNL1        0.0621
     27 N          -2.1140    1.0716    1.2805 N.4     1  UNL1        0.2327
     28 H          -2.6025    1.3960    0.4377 H       1  UNL1        0.2018
     29 H          -2.5971    1.4266    2.1141 H       1  UNL1        0.2018
@<TRIPOS>UNITY_ATOM_ATTR
27 1
charge 1
@<TRIPOS>BOND
     1     1     2    1
     2     1    15    1
     3     1    16    1
     4     1    17    1
     5     2     3    1
     6     2     4    1
     7     2    27    1
     8     4     5    1
     9     4     6    1
    10     4     9    1
    11     6     7    1
    12     7     8    1
    13     7    18    1
    14     7    19    1
    15     8    20    1
    16     8    21    1
    17     8    27    1
    18     9    14   ar
    19     9    10   ar
    20    10    11   ar
    21    10    22    1
    22    11    12   ar
    23    11    23    1
    24    12    13   ar
    25    12    24    1
    26    13    14   ar
    27    13    25    1
    28    14    26    1
    29    27    28    1
    30    27    29    1
