@<TRIPOS>MOLECULE
ZINC11681507
 69 74 0 0 0
SMALL
GASTEIGER

@<TRIPOS>ATOM
      1 C          -4.6596   -3.5823    5.8006 C.3     1  UNL1       -0.0561
      2 C          -3.6966   -2.6171    5.1065 C.3     1  UNL1       -0.0139
      3 C          -2.4271   -2.4190    5.9445 C.3     1  UNL1       -0.0429
      4 C          -1.5175   -1.3949    5.2619 C.3     1  UNL1       -0.0329
      5 C          -2.1769   -0.9060    3.9660 C.3     1  UNL1        0.0858
      6 C          -2.3592   -2.1112    3.0331 C.3     1  UNL1       -0.0329
      7 C          -3.2847   -3.1381    3.7227 C.3     1  UNL1       -0.0429
      8 C          -3.5539   -0.3636    4.3193 C.2     1  UNL1       -0.0708
      9 C          -4.3449   -1.2542    4.9129 C.2     1  UNL1       -0.0810
     10 C          -1.3365    0.1573    3.3071 C.2     1  UNL1        0.3174
     11 O          -0.2974    0.5068    3.8150 O.2     1  UNL1       -0.2499
     12 O          -1.7423    0.7161    2.1561 O.3     1  UNL1       -0.4602
     13 C          -0.8856    1.7302    1.5802 C.3     1  UNL1        0.1087
     14 H          -0.3712    2.2982    2.3463 H       1  UNL1        0.0739
     15 C           0.1241    1.0946    0.5875 C.3     1  UNL1       -0.0149
     16 C          -0.4072    1.4088   -0.8423 C.3     1  UNL1       -0.0460
     17 C          -1.8632    1.8040   -0.5671 C.3     1  UNL1       -0.0290
     18 H          -2.3936    0.8654   -0.2666 H       1  UNL1        0.0310
     19 C          -1.7146    2.6803    0.6907 C.3     1  UNL1        0.0081
     20 C          -3.0702    3.0660    1.2275 C.3     1  UNL1       -0.0437
     21 C          -3.8773    3.7518    0.1096 C.3     1  UNL1       -0.0488
     22 C          -4.0334    2.8204   -1.0829 C.3     1  UNL1       -0.0314
     23 H          -4.4964    1.8924   -0.7116 H       1  UNL1        0.0309
     24 C          -2.6644    2.4337   -1.6661 C.3     1  UNL1       -0.0339
     25 H          -2.8474    1.6678   -2.4518 H       1  UNL1        0.0307
     26 C          -2.0039    3.6314   -2.3328 C.3     1  UNL1       -0.0460
     27 C          -2.8658    4.0679   -3.5294 C.3     1  UNL1       -0.0308
     28 C          -4.2434    4.4127   -2.9905 C.2     1  UNL1       -0.0629
     29 C          -4.7518    5.6073   -3.2879 C.2     1  UNL1       -0.0197
     30 C          -6.0830    5.9661   -2.7809 C.2     1  UNL1        0.1561
     31 O          -6.4151    7.1155   -2.5987 O.2     1  UNL1       -0.2927
     32 C          -7.0130    4.8009   -2.4964 C.3     1  UNL1        0.0104
     33 C          -6.2623    3.8533   -1.5584 C.3     1  UNL1       -0.0392
     34 C          -4.9500    3.3885   -2.1581 C.3     1  UNL1       -0.0160
     35 H          -5.1950    2.5553   -2.8359 H       1  UNL1        0.0349
     36 C          -0.8560    3.9246    0.4687 C.3     1  UNL1       -0.0559
     37 H          -4.9399   -3.1789    6.7736 H       1  UNL1        0.0238
     38 H          -5.5526   -3.7077    5.1883 H       1  UNL1        0.0238
     39 H          -4.1723   -4.5481    5.9344 H       1  UNL1        0.0238
     40 H          -1.9002   -3.3688    6.0356 H       1  UNL1        0.0274
     41 H          -2.6996   -2.0584    6.9364 H       1  UNL1        0.0274
     42 H          -0.5591   -1.8588    5.0291 H       1  UNL1        0.0279
     43 H          -1.3585   -0.5485    5.9301 H       1  UNL1        0.0279
     44 H          -2.8064   -1.7805    2.0957 H       1  UNL1        0.0279
     45 H          -1.3886   -2.5649    2.8321 H       1  UNL1        0.0279
     46 H          -2.7500   -4.0814    3.8343 H       1  UNL1        0.0274
     47 H          -4.1752   -3.2953    3.1141 H       1  UNL1        0.0274
     48 H          -3.8571    0.6532    4.1177 H       1  UNL1        0.0580
     49 H          -5.3536   -1.0305    5.2275 H       1  UNL1        0.0575
     50 H           0.1633    0.0160    0.7382 H       1  UNL1        0.0301
     51 H           1.1111    1.5317    0.7244 H       1  UNL1        0.0301
     52 H           0.1539    2.2124   -1.3053 H       1  UNL1        0.0269
     53 H          -0.3687    0.5102   -1.4629 H       1  UNL1        0.0269
     54 H          -2.9553    3.7572    2.0672 H       1  UNL1        0.0272
     55 H          -3.6082    2.1789    1.5688 H       1  UNL1        0.0272
     56 H          -3.3889    4.6708   -0.1960 H       1  UNL1        0.0268
     57 H          -4.8639    3.9941    0.5124 H       1  UNL1        0.0268
     58 H          -1.9576    4.4844   -1.6570 H       1  UNL1        0.0271
     59 H          -1.0086    3.3740   -2.6856 H       1  UNL1        0.0271
     60 H          -2.4210    4.9390   -4.0006 H       1  UNL1        0.0310
     61 H          -2.9419    3.2472   -4.2380 H       1  UNL1        0.0310
     62 H          -4.1960    6.3047   -3.8929 H       1  UNL1        0.0652
     63 H          -7.8514    5.1401   -2.0698 H       1  UNL1        0.0345
     64 H          -7.2586    4.2867   -3.4240 H       1  UNL1        0.0345
     65 H          -6.0795    4.3742   -0.6215 H       1  UNL1        0.0275
     66 H          -6.8916    2.9828   -1.3635 H       1  UNL1        0.0275
     67 H          -1.3840    4.6184   -0.1855 H       1  UNL1        0.0236
     68 H          -0.6599    4.4064    1.4266 H       1  UNL1        0.0236
     69 H           0.0883    3.6368    0.0067 H       1  UNL1        0.0236
@<TRIPOS>BOND
     1     1     2    1
     2     1    37    1
     3     1    38    1
     4     1    39    1
     5     2     7    1
     6     2     9    1
     7     2     3    1
     8     3     4    1
     9     3    40    1
    10     3    41    1
    11     4     5    1
    12     4    42    1
    13     4    43    1
    14     5     6    1
    15     5     8    1
    16     5    10    1
    17     6     7    1
    18     6    44    1
    19     6    45    1
    20     7    46    1
    21     7    47    1
    22     8     9    2
    23     8    48    1
    24     9    49    1
    25    10    11    2
    26    10    12    1
    27    12    13    1
    28    13    14    1
    29    13    19    1
    30    13    15    1
    31    15    16    1
    32    15    50    1
    33    15    51    1
    34    16    17    1
    35    16    52    1
    36    16    53    1
    37    17    18    1
    38    17    24    1
    39    17    19    1
    40    19    20    1
    41    19    36    1
    42    20    21    1
    43    20    54    1
    44    20    55    1
    45    21    22    1
    46    21    56    1
    47    21    57    1
    48    22    23    1
    49    22    34    1
    50    22    24    1
    51    24    25    1
    52    24    26    1
    53    26    27    1
    54    26    58    1
    55    26    59    1
    56    27    28    1
    57    27    60    1
    58    27    61    1
    59    28    34    1
    60    28    29    2
    61    29    30    1
    62    29    62    1
    63    30    31    2
    64    30    32    1
    65    32    33    1
    66    32    63    1
    67    32    64    1
    68    33    34    1
    69    33    65    1
    70    33    66    1
    71    34    35    1
    72    36    67    1
    73    36    68    1
    74    36    69    1
