@<TRIPOS>MOLECULE
ZINC14693673
 74 76 0 0 0
SMALL
GASTEIGER

@<TRIPOS>ATOM
      1 C          -5.2731    3.0713    3.9452 C.3     1  UNL1       -0.0621
      2 C          -5.0959    1.5517    3.9263 C.3     1  UNL1       -0.0405
      3 H          -4.5233    1.2417    4.8005 H       1  UNL1        0.0301
      4 C          -4.3491    1.1410    2.6557 C.3     1  UNL1       -0.0501
      5 C          -2.9307    1.7135    2.6903 C.3     1  UNL1       -0.0502
      6 C          -2.1839    1.3028    1.4196 C.3     1  UNL1       -0.0245
      7 C          -0.7654    1.8753    1.4542 C.3     1  UNL1        0.0605
      8 C          -0.0186    1.4647    0.1835 C.3     1  UNL1       -0.0363
      9 C          -0.0259    1.3321    2.6785 C.3     1  UNL1       -0.0363
     10 O          -0.8288    3.3009    1.5297 O.3     1  UNL1       -0.3891
     11 C          -6.4693    0.8778    3.9511 C.3     1  UNL1       -0.0325
     12 H          -7.0492    1.1694    3.0754 H       1  UNL1        0.0309
     13 C          -7.2298    1.2519    5.2501 C.3     1  UNL1       -0.0489
     14 C          -7.5738   -0.0897    5.9567 C.3     1  UNL1       -0.0457
     15 C          -7.5711   -1.0914    4.7997 C.3     1  UNL1       -0.0139
     16 H          -8.4726   -0.9861    4.1961 H       1  UNL1        0.0351
     17 C          -6.3149   -0.6342    4.0055 C.3     1  UNL1       -0.0225
     18 C          -6.2939   -1.4004    2.7034 C.3     1  UNL1       -0.0465
     19 C          -6.0184   -2.8760    3.0378 C.3     1  UNL1       -0.0488
     20 C          -7.0820   -3.4541    3.9693 C.3     1  UNL1       -0.0312
     21 C          -7.3224   -2.5277    5.1527 C.2     1  UNL1       -0.0659
     22 C          -7.3127   -2.9619    6.4129 C.2     1  UNL1       -0.0620
     23 C          -7.0641   -4.3769    6.6981 C.2     1  UNL1       -0.0582
     24 C          -7.0543   -4.8163    7.9735 C.2     1  UNL1       -0.0399
     25 C          -7.2960   -3.8780    9.1390 C.3     1  UNL1       -0.0011
     26 C          -6.2295   -4.1481   10.2052 C.3     1  UNL1        0.0619
     27 H          -5.2434   -3.9310    9.7945 H       1  UNL1        0.0597
     28 C          -6.2875   -5.6140   10.6365 C.3     1  UNL1        0.0037
     29 C          -5.8793   -6.5157    9.4670 C.3     1  UNL1        0.0822
     30 H          -4.8507   -6.2994    9.1782 H       1  UNL1        0.0644
     31 C          -6.8134   -6.2370    8.3014 C.2     1  UNL1       -0.0229
     32 C          -7.3850   -7.2210    7.6073 C.2     1  UNL1       -0.0928
     33 O          -5.9923   -7.8867    9.8540 O.3     1  UNL1       -0.3871
     34 O          -6.4673   -3.3099   11.3379 O.3     1  UNL1       -0.3914
     35 C          -5.0588   -0.9853    4.8054 C.3     1  UNL1       -0.0588
     36 H          -4.2947    3.5514    3.9276 H       1  UNL1        0.0233
     37 H          -5.8457    3.3812    3.0710 H       1  UNL1        0.0233
     38 H          -5.8051    3.3638    4.8504 H       1  UNL1        0.0233
     39 H          -4.8760    1.5280    1.7835 H       1  UNL1        0.0268
     40 H          -4.3007    0.0536    2.5981 H       1  UNL1        0.0268
     41 H          -2.4038    1.3265    3.5625 H       1  UNL1        0.0266
     42 H          -2.9790    2.8009    2.7479 H       1  UNL1        0.0266
     43 H          -2.7107    1.6898    0.5474 H       1  UNL1        0.0293
     44 H          -2.1355    0.2154    1.3620 H       1  UNL1        0.0293
     45 H           0.0298    0.3773    0.1259 H       1  UNL1        0.0257
     46 H           0.9919    1.8725    0.2082 H       1  UNL1        0.0257
     47 H          -0.5455    1.8517   -0.6887 H       1  UNL1        0.0257
     48 H           0.9846    1.7399    2.7031 H       1  UNL1        0.0257
     49 H          -0.5579    1.6246    3.5837 H       1  UNL1        0.0257
     50 H           0.0225    0.2447    2.6208 H       1  UNL1        0.0257
     51 H          -1.2853    3.7144    0.7842 H       1  UNL1        0.2101
     52 H          -6.5950    1.8617    5.8930 H       1  UNL1        0.0268
     53 H          -8.1447    1.7918    5.0060 H       1  UNL1        0.0268
     54 H          -6.8105   -0.3462    6.6914 H       1  UNL1        0.0271
     55 H          -8.5568   -0.0387    6.4250 H       1  UNL1        0.0271
     56 H          -7.2584   -1.3080    2.2042 H       1  UNL1        0.0271
     57 H          -5.5052   -1.0126    2.0587 H       1  UNL1        0.0271
     58 H          -6.0042   -3.4531    2.1133 H       1  UNL1        0.0268
     59 H          -5.0442   -2.9549    3.5205 H       1  UNL1        0.0268
     60 H          -8.0131   -3.5797    3.4167 H       1  UNL1        0.0310
     61 H          -6.7486   -4.4249    4.3361 H       1  UNL1        0.0310
     62 H          -7.4881   -2.2703    7.2237 H       1  UNL1        0.0617
     63 H          -6.8887   -5.0685    5.8873 H       1  UNL1        0.0620
     64 H          -7.2227   -2.8447    8.7998 H       1  UNL1        0.0338
     65 H          -8.2868   -4.0581    9.5560 H       1  UNL1        0.0338
     66 H          -5.6057   -5.7732   11.4719 H       1  UNL1        0.0318
     67 H          -7.3032   -5.8608   10.9456 H       1  UNL1        0.0318
     68 H          -8.0425   -6.9887    6.7826 H       1  UNL1        0.0538
     69 H          -7.1907   -8.2505    7.8697 H       1  UNL1        0.0538
     70 H          -5.7485   -8.5130    9.1588 H       1  UNL1        0.2102
     71 H          -6.4402   -2.3639   11.1397 H       1  UNL1        0.2098
     72 H          -5.0829   -0.4687    5.7649 H       1  UNL1        0.0235
     73 H          -5.0239   -2.0617    4.9731 H       1  UNL1        0.0235
     74 H          -4.1747   -0.6756    4.2480 H       1  UNL1        0.0235
@<TRIPOS>BOND
     1     1     2    1
     2     1    36    1
     3     1    37    1
     4     1    38    1
     5     2     3    1
     6     2     4    1
     7     2    11    1
     8     4     5    1
     9     4    39    1
    10     4    40    1
    11     5     6    1
    12     5    41    1
    13     5    42    1
    14     6     7    1
    15     6    43    1
    16     6    44    1
    17     7     8    1
    18     7     9    1
    19     7    10    1
    20     8    45    1
    21     8    46    1
    22     8    47    1
    23     9    48    1
    24     9    49    1
    25     9    50    1
    26    10    51    1
    27    11    12    1
    28    11    17    1
    29    11    13    1
    30    13    14    1
    31    13    52    1
    32    13    53    1
    33    14    15    1
    34    14    54    1
    35    14    55    1
    36    15    16    1
    37    15    21    1
    38    15    17    1
    39    17    18    1
    40    17    35    1
    41    18    19    1
    42    18    56    1
    43    18    57    1
    44    19    20    1
    45    19    58    1
    46    19    59    1
    47    20    21    1
    48    20    60    1
    49    20    61    1
    50    21    22    2
    51    22    23    1
    52    22    62    1
    53    23    24    2
    54    23    63    1
    55    24    31    1
    56    24    25    1
    57    25    26    1
    58    25    64    1
    59    25    65    1
    60    26    27    1
    61    26    28    1
    62    26    34    1
    63    28    29    1
    64    28    66    1
    65    28    67    1
    66    29    30    1
    67    29    31    1
    68    29    33    1
    69    31    32    2
    70    32    68    1
    71    32    69    1
    72    33    70    1
    73    34    71    1
    74    35    72    1
    75    35    73    1
    76    35    74    1
