@<TRIPOS>MOLECULE
ZINC02005400
 31 32 0 0 0
SMALL
GASTEIGER

@<TRIPOS>ATOM
      1 C          -6.5177    7.0400    0.0747 C.3     1  UNL1        0.0024
      2 N          -6.1269    5.6281    0.0640 N.pl3   1  UNL1       -0.3119
      3 C          -7.0633    4.5032    0.0625 C.3     1  UNL1        0.1346
      4 H          -7.6820    4.5246    0.9596 H       1  UNL1        0.0737
      5 C          -6.1874    3.2408    0.0506 C.3     1  UNL1        0.0119
      6 C          -4.7663    3.7662    0.0460 C.2     1  UNL1       -0.0207
      7 C          -3.5897    3.0954    0.0359 C.2     1  UNL1       -0.0260
      8 C          -2.3611    3.8037    0.0339 C.2     1  UNL1        0.1288
      9 N          -1.2081    3.1588    0.0249 N.2     1  UNL1       -0.1754
     10 N          -1.1906    1.8689    0.0179 N.am    1  UNL1       -0.1903
     11 C          -0.0144    1.2110    0.0087 C.2     1  UNL1        0.3165
     12 O           0.0021   -0.0041    0.0020 O.2     1  UNL1       -0.2513
     13 N           1.1435    1.9007    0.0013 N.am    1  UNL1       -0.3120
     14 C          -2.4021    5.2790    0.0484 C.2     1  UNL1        0.2074
     15 O          -1.3682    5.9311    0.0519 O.2     1  UNL1       -0.2855
     16 C          -3.6459    5.9157    0.0525 C.2     1  UNL1        0.0086
     17 C          -4.8189    5.1705    0.0544 C.2     1  UNL1        0.0379
     18 S          -8.1070    4.5572   -1.4202 S.3     1  UNL1       -0.0606
     19 O          -7.2979    4.6380   -2.5856 O.2     1  UNL1       -0.1835
     20 O          -9.1443    3.5908   -1.3240 O.2     1  UNL1       -0.1835
     21 H          -6.6088    7.3840    1.1050 H       1  UNL1        0.0428
     22 H          -5.7597    7.6307   -0.4398 H       1  UNL1        0.0428
     23 H          -7.4752    7.1559   -0.4331 H       1  UNL1        0.0428
     24 H          -6.3788    2.6532   -0.8474 H       1  UNL1        0.0348
     25 H          -6.3686    2.6411    0.9426 H       1  UNL1        0.0348
     26 H          -3.5871    2.0154    0.0296 H       1  UNL1        0.0644
     27 H          -2.0240    1.3725    0.0191 H       1  UNL1        0.1788
     28 H           1.9900    1.4272   -0.0093 H       1  UNL1        0.1465
     29 H           1.1303    2.8706    0.0067 H       1  UNL1        0.1465
     30 H          -3.6960    6.9945    0.0590 H       1  UNL1        0.0675
     31 O          -8.8195    5.9002   -1.3483 O.co2   1  UNL1       -0.7230
@<TRIPOS>UNITY_ATOM_ATTR
31 1
charge -1
@<TRIPOS>BOND
     1     1     2    1
     2     1    21    1
     3     1    22    1
     4     1    23    1
     5     2    17    1
     6     2     3    1
     7     3     4    1
     8     3     5    1
     9     3    18    1
    10     5     6    1
    11     5    24    1
    12     5    25    1
    13     6    17    1
    14     6     7    2
    15     7     8    1
    16     7    26    1
    17     8     9    2
    18     8    14    1
    19     9    10    1
    20    10    11   am
    21    10    27    1
    22    11    12    2
    23    11    13   am
    24    13    28    1
    25    13    29    1
    26    14    15    2
    27    14    16    1
    28    16    17    2
    29    16    30    1
    30    18    19    2
    31    18    20    2
    32    18    31    1
