@<TRIPOS>MOLECULE
ZINC01565207
 37 39 0 0 0
SMALL
GASTEIGER

@<TRIPOS>ATOM
      1 C           5.3246    0.9228   -2.4546 C.3     1  UNL1       -0.0427
      2 C           5.3940    1.6280   -0.1416 C.3     1  UNL1       -0.0041
      3 C           4.6306    1.6745    1.1558 C.ar    1  UNL1        0.0216
      4 C           3.2806    1.4077    1.2157 C.ar    1  UNL1       -0.0250
      5 C           2.6175    1.4667    2.4326 C.ar    1  UNL1       -0.0572
      6 C           3.3010    1.7890    3.5887 C.ar    1  UNL1       -0.0597
      7 C           4.6549    2.0555    3.5365 C.ar    1  UNL1       -0.0406
      8 C           5.3220    1.9994    2.3213 C.ar    1  UNL1        0.0331
      9 N           6.6914    2.2689    2.2660 N.pl3   1  UNL1       -0.3576
     10 C           2.4902    1.0476   -0.0161 C.3     1  UNL1        0.0497
     11 H           2.3040   -0.0264   -0.0237 H       1  UNL1        0.0450
     12 C           3.2732    1.4359   -1.2706 C.3     1  UNL1       -0.0208
     13 C           1.1750    1.7832    0.0004 C.ar    1  UNL1       -0.0349
     14 C          -0.0126    1.0758    0.0080 C.ar    1  UNL1       -0.0578
     15 C          -1.2190    1.7507    0.0173 C.ar    1  UNL1       -0.0615
     16 C          -1.2377    3.1328    0.0299 C.ar    1  UNL1       -0.0617
     17 C          -0.0501    3.8402    0.0223 C.ar    1  UNL1       -0.0615
     18 C           1.1563    3.1654    0.0076 C.ar    1  UNL1       -0.0578
     19 H           5.3880    1.9522   -2.8073 H       1  UNL1        0.0778
     20 H           6.3291    0.5146   -2.3426 H       1  UNL1        0.0778
     21 H           4.7680    0.3251   -3.1764 H       1  UNL1        0.0778
     22 H           6.3513    1.1332    0.0219 H       1  UNL1        0.0868
     23 H           5.5699    2.6451   -0.4916 H       1  UNL1        0.0868
     24 H           1.5586    1.2586    2.4764 H       1  UNL1        0.0621
     25 H           2.7772    1.8329    4.5321 H       1  UNL1        0.0618
     26 H           5.1927    2.3073    4.4386 H       1  UNL1        0.0636
     27 H           7.1595    2.2298    1.4173 H       1  UNL1        0.1423
     28 H           7.1743    2.4951    3.0763 H       1  UNL1        0.1423
     29 H           2.7841    1.0194   -2.1512 H       1  UNL1        0.0824
     30 H           3.3187    2.5218   -1.3525 H       1  UNL1        0.0824
     31 H           0.0021   -0.0041    0.0020 H       1  UNL1        0.0620
     32 H          -2.1469    1.1980    0.0188 H       1  UNL1        0.0618
     33 H          -2.1802    3.6600    0.0411 H       1  UNL1        0.0618
     34 H          -0.0647    4.9201    0.0276 H       1  UNL1        0.0618
     35 H           2.0841    3.7181    0.0014 H       1  UNL1        0.0620
     36 N           4.6327    0.8692   -1.1481 N.4     1  UNL1        0.2371
     37 H           4.5622   -0.1100   -0.8475 H       1  UNL1        0.2034
@<TRIPOS>UNITY_ATOM_ATTR
36 1
charge 1
@<TRIPOS>BOND
     1     1    19    1
     2     1    20    1
     3     1    21    1
     4     1    36    1
     5     2     3    1
     6     2    22    1
     7     2    23    1
     8     2    36    1
     9     3     8   ar
    10     3     4   ar
    11     4     5   ar
    12     4    10    1
    13     5     6   ar
    14     5    24    1
    15     6     7   ar
    16     6    25    1
    17     7     8   ar
    18     7    26    1
    19     8     9    1
    20     9    27    1
    21     9    28    1
    22    10    11    1
    23    10    12    1
    24    10    13    1
    25    12    29    1
    26    12    30    1
    27    12    36    1
    28    13    18   ar
    29    13    14   ar
    30    14    15   ar
    31    14    31    1
    32    15    16   ar
    33    15    32    1
    34    16    17   ar
    35    16    33    1
    36    17    18   ar
    37    17    34    1
    38    18    35    1
    39    36    37    1
