@<TRIPOS>MOLECULE
ZINC03831452
 68 70 0 0 0
SMALL
GASTEIGER

@<TRIPOS>ATOM
      1 C          -7.8740    0.4388   -3.5342 C.3     1  UNL1       -0.0643
      2 C          -6.6601   -0.3546   -3.0464 C.3     1  UNL1       -0.0406
      3 C          -6.0023    0.3855   -1.8800 C.3     1  UNL1        0.0619
      4 C          -7.0302    0.5994   -0.7671 C.3     1  UNL1       -0.0497
      5 C          -5.4844    1.7415   -2.3634 C.3     1  UNL1       -0.0497
      6 C          -4.8521   -0.4320   -1.3511 C.2     1  UNL1        0.3130
      7 O          -4.4843   -1.4152   -1.9493 O.2     1  UNL1       -0.2502
      8 O          -4.2362   -0.0679   -0.2153 O.3     1  UNL1       -0.4603
      9 C          -2.9258   -0.6402    0.0366 C.3     1  UNL1        0.1106
     10 H          -2.3703   -0.6790   -0.9004 H       1  UNL1        0.0740
     11 C          -3.0987   -2.0607    0.5703 C.3     1  UNL1       -0.0090
     12 C          -1.7071   -2.6414    0.8589 C.3     1  UNL1       -0.0218
     13 H          -1.8004   -3.6667    1.2170 H       1  UNL1        0.0342
     14 C          -1.0664   -1.7852    1.9211 C.2     1  UNL1       -0.0775
     15 C          -1.3138   -0.4903    1.9870 C.2     1  UNL1       -0.0444
     16 C          -2.1836    0.2434    1.0095 C.3     1  UNL1        0.0243
     17 H          -1.5345    0.8961    0.4258 H       1  UNL1        0.0388
     18 C          -3.1249    1.1516    1.7999 C.3     1  UNL1       -0.0247
     19 H          -3.7073    0.5535    2.5008 H       1  UNL1        0.0313
     20 C          -2.2886    2.1751    2.5698 C.3     1  UNL1       -0.0219
     21 H          -2.9342    2.7089    3.2673 H       1  UNL1        0.0343
     22 C          -1.1788    1.5209    3.3345 C.2     1  UNL1       -0.0806
     23 C          -0.7143    0.3097    3.0799 C.2     1  UNL1       -0.0621
     24 C          -1.6896    3.1759    1.5795 C.3     1  UNL1       -0.0587
     25 C          -4.0645    1.8777    0.8350 C.3     1  UNL1       -0.0457
     26 C          -4.6180    3.1339    1.5106 C.3     1  UNL1       -0.0153
     27 C          -5.9294    3.5403    0.8355 C.3     1  UNL1        0.1054
     28 H          -5.8506    3.3796   -0.2397 H       1  UNL1        0.0734
     29 C          -6.2112    5.0194    1.1137 C.3     1  UNL1        0.0109
     30 C          -7.5507    5.4089    0.4810 C.3     1  UNL1        0.0686
     31 H          -7.5082    5.2416   -0.5953 H       1  UNL1        0.0600
     32 C          -8.6604    4.5441    1.0914 C.3     1  UNL1        0.0710
     33 C          -8.2578    3.0913    0.9642 C.2     1  UNL1        0.3098
     34 O          -9.0227    2.2715    0.5140 O.2     1  UNL1       -0.2507
     35 O          -7.0200    2.7374    1.3685 O.3     1  UNL1       -0.4612
     36 O          -7.8216    6.7878    0.7404 O.3     1  UNL1       -0.3911
     37 C          -0.8582   -2.6116   -0.4137 C.3     1  UNL1       -0.0588
     38 H          -8.5617    0.5980   -2.7036 H       1  UNL1        0.0230
     39 H          -7.5456    1.4024   -3.9237 H       1  UNL1        0.0230
     40 H          -8.3795   -0.1187   -4.3227 H       1  UNL1        0.0230
     41 H          -5.9433   -0.4592   -3.8608 H       1  UNL1        0.0273
     42 H          -6.9808   -1.3424   -2.7155 H       1  UNL1        0.0273
     43 H          -6.5616    1.1266    0.0639 H       1  UNL1        0.0240
     44 H          -7.8622    1.1907   -1.1496 H       1  UNL1        0.0240
     45 H          -7.3992   -0.3667   -0.4227 H       1  UNL1        0.0240
     46 H          -4.7573    1.5894   -3.1611 H       1  UNL1        0.0240
     47 H          -6.3174    2.3355   -2.7395 H       1  UNL1        0.0240
     48 H          -5.0095    2.2658   -1.5341 H       1  UNL1        0.0240
     49 H          -3.6051   -2.6739   -0.1751 H       1  UNL1        0.0307
     50 H          -3.6855   -2.0397    1.4886 H       1  UNL1        0.0307
     51 H          -0.3965   -2.2371    2.6376 H       1  UNL1        0.0578
     52 H          -0.7297    2.0741    4.1460 H       1  UNL1        0.0575
     53 H           0.0984   -0.0942    3.6654 H       1  UNL1        0.0617
     54 H          -1.0423    2.6497    0.8780 H       1  UNL1        0.0235
     55 H          -1.1076    3.9205    2.1227 H       1  UNL1        0.0235
     56 H          -2.4923    3.6705    1.0325 H       1  UNL1        0.0235
     57 H          -3.5154    2.1602   -0.0632 H       1  UNL1        0.0269
     58 H          -4.8885    1.2175    0.5645 H       1  UNL1        0.0269
     59 H          -4.8008    2.9285    2.5654 H       1  UNL1        0.0301
     60 H          -3.8953    3.9446    1.4182 H       1  UNL1        0.0301
     61 H          -6.2556    5.1849    2.1901 H       1  UNL1        0.0326
     62 H          -5.4155    5.6282    0.6843 H       1  UNL1        0.0326
     63 H          -9.5947    4.7142    0.5564 H       1  UNL1        0.0403
     64 H          -8.7883    4.7988    2.1435 H       1  UNL1        0.0403
     65 H          -8.6600    7.0998    0.3732 H       1  UNL1        0.2098
     66 H           0.1383   -2.9950   -0.1947 H       1  UNL1        0.0235
     67 H          -1.3266   -3.2323   -1.1775 H       1  UNL1        0.0235
     68 H          -0.7816   -1.5862   -0.7754 H       1  UNL1        0.0235
@<TRIPOS>BOND
     1     1     2    1
     2     1    38    1
     3     1    39    1
     4     1    40    1
     5     2     3    1
     6     2    41    1
     7     2    42    1
     8     3     4    1
     9     3     5    1
    10     3     6    1
    11     4    43    1
    12     4    44    1
    13     4    45    1
    14     5    46    1
    15     5    47    1
    16     5    48    1
    17     6     7    2
    18     6     8    1
    19     8     9    1
    20     9    10    1
    21     9    16    1
    22     9    11    1
    23    11    12    1
    24    11    49    1
    25    11    50    1
    26    12    13    1
    27    12    14    1
    28    12    37    1
    29    14    15    2
    30    14    51    1
    31    15    23    1
    32    15    16    1
    33    16    17    1
    34    16    18    1
    35    18    19    1
    36    18    20    1
    37    18    25    1
    38    20    21    1
    39    20    22    1
    40    20    24    1
    41    22    23    2
    42    22    52    1
    43    23    53    1
    44    24    54    1
    45    24    55    1
    46    24    56    1
    47    25    26    1
    48    25    57    1
    49    25    58    1
    50    26    27    1
    51    26    59    1
    52    26    60    1
    53    27    28    1
    54    27    35    1
    55    27    29    1
    56    29    30    1
    57    29    61    1
    58    29    62    1
    59    30    31    1
    60    30    32    1
    61    30    36    1
    62    32    33    1
    63    32    63    1
    64    32    64    1
    65    33    34    2
    66    33    35    1
    67    36    65    1
    68    37    66    1
    69    37    67    1
    70    37    68    1
