@<TRIPOS>MOLECULE
ZINC01529463
 45 48 0 0 0
SMALL
GASTEIGER

@<TRIPOS>ATOM
      1 C          -1.9749    3.4138   -2.3415 C.3     1  UNL1       -0.0526
      2 C          -1.0162    3.0678   -1.2004 C.3     1  UNL1        0.0293
      3 C          -1.6227    3.5238    0.1079 C.3     1  UNL1       -0.0401
      4 C          -0.7650    3.0814    1.2918 C.3     1  UNL1       -0.0450
      5 C          -0.6818    1.5492    1.2945 C.3     1  UNL1       -0.0124
      6 H          -1.6783    1.1137    1.3682 H       1  UNL1        0.0352
      7 C           0.1494    1.1238    2.4822 C.ar    1  UNL1       -0.0406
      8 C          -0.4716    1.0814    3.7232 C.ar    1  UNL1       -0.0545
      9 C           0.2364    0.7167    4.8487 C.ar    1  UNL1       -0.0168
     10 C           1.5803    0.3894    4.7381 C.ar    1  UNL1        0.1550
     11 C           2.1968    0.4286    3.4995 C.ar    1  UNL1       -0.0137
     12 C           1.4810    0.7941    2.3664 C.ar    1  UNL1       -0.0404
     13 C           2.2163    0.8064    1.0518 C.3     1  UNL1       -0.0270
     14 C           1.4327    1.5867   -0.0031 C.3     1  UNL1       -0.0454
     15 C          -0.0127    1.0858    0.0080 C.3     1  UNL1       -0.0302
     16 H           0.0021   -0.0041    0.0020 H       1  UNL1        0.0310
     17 C          -0.7596    1.5628   -1.2302 C.3     1  UNL1       -0.0252
     18 H          -1.6754    0.9956   -1.3966 H       1  UNL1        0.0313
     19 C           0.2421    1.4430   -2.4289 C.3     1  UNL1       -0.0424
     20 C           1.1331    2.6939   -2.2659 C.3     1  UNL1        0.0067
     21 C           0.3241    3.7065   -1.4755 C.2     1  UNL1        0.1395
     22 O           0.6824    4.8078   -1.1335 O.2     1  UNL1       -0.2968
     23 O           2.2886    0.0322    5.8415 O.3     1  UNL1       -0.3605
     24 S           2.9524    1.2006    6.5562 S.3     1  UNL1        0.0425
     25 O           3.8072    0.6402    7.5433 O.2     1  UNL1       -0.3360
     26 O           3.4289    2.0775    5.5447 O.2     1  UNL1       -0.3360
     27 H          -2.1453    4.4902   -2.3591 H       1  UNL1        0.0239
     28 H          -1.5394    3.0993   -3.2899 H       1  UNL1        0.0239
     29 H          -2.9230    2.8983   -2.1884 H       1  UNL1        0.0239
     30 H          -2.6201    3.0959    0.2086 H       1  UNL1        0.0275
     31 H          -1.6982    4.6112    0.1069 H       1  UNL1        0.0275
     32 H          -1.2198    3.4244    2.2211 H       1  UNL1        0.0271
     33 H           0.2363    3.5017    1.1980 H       1  UNL1        0.0271
     34 H          -1.5179    1.3357    3.8076 H       1  UNL1        0.0622
     35 H          -0.2524    0.6856    5.8113 H       1  UNL1        0.0655
     36 H           3.2426    0.1734    3.4133 H       1  UNL1        0.0658
     37 H           2.3553   -0.2190    0.7092 H       1  UNL1        0.0313
     38 H           3.1918    1.2723    1.1910 H       1  UNL1        0.0313
     39 H           1.8724    1.4194   -0.9863 H       1  UNL1        0.0271
     40 H           1.4551    2.6505    0.2334 H       1  UNL1        0.0271
     41 H          -0.2906    1.4721   -3.3794 H       1  UNL1        0.0272
     42 H           0.8387    0.5340   -2.3521 H       1  UNL1        0.0272
     43 H           1.3744    3.0511   -3.1682 H       1  UNL1        0.0342
     44 H           2.0422    2.4369   -1.7223 H       1  UNL1        0.0342
     45 O           1.8590    1.9511    7.3029 O.co2   1  UNL1       -0.2589
@<TRIPOS>UNITY_ATOM_ATTR
45 1
charge -1
@<TRIPOS>BOND
     1     1     2    1
     2     1    27    1
     3     1    28    1
     4     1    29    1
     5     2    17    1
     6     2    21    1
     7     2     3    1
     8     3     4    1
     9     3    30    1
    10     3    31    1
    11     4     5    1
    12     4    32    1
    13     4    33    1
    14     5     6    1
    15     5    15    1
    16     5     7    1
    17     7    12   ar
    18     7     8   ar
    19     8     9   ar
    20     8    34    1
    21     9    10   ar
    22     9    35    1
    23    10    11   ar
    24    10    23    1
    25    11    12   ar
    26    11    36    1
    27    12    13    1
    28    13    14    1
    29    13    37    1
    30    13    38    1
    31    14    15    1
    32    14    39    1
    33    14    40    1
    34    15    16    1
    35    15    17    1
    36    17    18    1
    37    17    19    1
    38    19    20    1
    39    19    41    1
    40    19    42    1
    41    20    21    1
    42    20    43    1
    43    20    44    1
    44    21    22    2
    45    23    24    1
    46    24    25    2
    47    24    26    2
    48    24    45    1
