@<TRIPOS>MOLECULE
ZINC03830866
 52 54 0 0 0
SMALL
GASTEIGER

@<TRIPOS>ATOM
      1 C           5.1278   -1.5860   -2.4827 C.3     1  UNL1       -0.0201
      2 C           3.7015   -2.0057   -2.1219 C.3     1  UNL1       -0.0078
      3 H           2.9948   -1.2907   -2.5432 H       1  UNL1        0.0864
      4 C           3.5488   -2.0373   -0.5998 C.3     1  UNL1        0.0599
      5 N           3.7001   -0.6816   -0.0656 N.pl3   1  UNL1       -0.2929
      6 C           2.5768    0.1413   -0.0690 C.ar    1  UNL1        0.0480
      7 C           1.3153   -0.4453   -0.0831 C.ar    1  UNL1       -0.0393
      8 C           0.1794    0.3415   -0.0966 C.ar    1  UNL1       -0.0599
      9 C           0.2877    1.7193   -0.0938 C.ar    1  UNL1       -0.0606
     10 C           1.5364    2.3134   -0.0776 C.ar    1  UNL1       -0.0462
     11 C           2.6812    1.5294   -0.0644 C.ar    1  UNL1        0.0341
     12 S           4.2632    2.3037   -0.0367 S.3     1  UNL1       -0.0857
     13 C           5.3555    1.0201    0.4747 C.ar    1  UNL1        0.0342
     14 C           4.9562   -0.3123    0.4085 C.ar    1  UNL1        0.0499
     15 C           5.8353   -1.3063    0.8248 C.ar    1  UNL1       -0.0129
     16 C           7.0924   -0.9753    1.2947 C.ar    1  UNL1        0.1073
     17 C           7.4860    0.3477    1.3547 C.ar    1  UNL1       -0.0342
     18 C           6.6192    1.3450    0.9455 C.ar    1  UNL1       -0.0443
     19 S           8.1961   -2.2446    1.8195 S.O2    1  UNL1        0.0604
     20 O           9.1075   -1.6406    2.7271 O.2     1  UNL1       -0.1529
     21 O           7.3917   -3.3601    2.1768 O.2     1  UNL1       -0.1529
     22 N           9.0799   -2.7029    0.4961 N.3     1  UNL1       -0.1827
     23 C          10.3448   -2.0297    0.1911 C.3     1  UNL1        0.0086
     24 C           8.5968   -3.7815   -0.3696 C.3     1  UNL1        0.0086
     25 C           2.0607   -3.7704   -2.3584 C.3     1  UNL1       -0.0430
     26 C           3.6785   -3.3780   -4.1166 C.3     1  UNL1       -0.0430
     27 H           5.8345   -2.3010   -2.0614 H       1  UNL1        0.0285
     28 H           5.2366   -1.5634   -3.5670 H       1  UNL1        0.0285
     29 H           5.3285   -0.5945   -2.0767 H       1  UNL1        0.0285
     30 H           4.3142   -2.6843   -0.1713 H       1  UNL1        0.0524
     31 H           2.5620   -2.4216   -0.3416 H       1  UNL1        0.0524
     32 H           1.2234   -1.5213   -0.0838 H       1  UNL1        0.0636
     33 H          -0.7961   -0.1217   -0.1089 H       1  UNL1        0.0618
     34 H          -0.6019    2.3315   -0.1088 H       1  UNL1        0.0618
     35 H           1.6207    3.3901   -0.0756 H       1  UNL1        0.0629
     36 H           5.5340   -2.3425    0.7809 H       1  UNL1        0.0656
     37 H           8.4697    0.6029    1.7201 H       1  UNL1        0.0637
     38 H           6.9268    2.3792    0.9934 H       1  UNL1        0.0630
     39 H          11.1626   -2.5497    0.6900 H       1  UNL1        0.0408
     40 H          10.5112   -2.0398   -0.8861 H       1  UNL1        0.0408
     41 H          10.3016   -0.9988    0.5424 H       1  UNL1        0.0408
     42 H           7.6480   -4.1575    0.0134 H       1  UNL1        0.0408
     43 H           8.4548   -3.3999   -1.3807 H       1  UNL1        0.0408
     44 H           9.3280   -4.5897   -0.3855 H       1  UNL1        0.0408
     45 H           1.3561   -3.0143   -2.7048 H       1  UNL1        0.0777
     46 H           1.8536   -4.7164   -2.8588 H       1  UNL1        0.0777
     47 H           1.9555   -3.8987   -1.2811 H       1  UNL1        0.0777
     48 H           4.7200   -3.1239   -4.3136 H       1  UNL1        0.0777
     49 H           3.4705   -4.3785   -4.4959 H       1  UNL1        0.0777
     50 H           3.0285   -2.6583   -4.6144 H       1  UNL1        0.0777
     51 N           3.4491   -3.3603   -2.6565 N.4     1  UNL1        0.2340
     52 H           4.0953   -4.0211   -2.2093 H       1  UNL1        0.2031
@<TRIPOS>UNITY_ATOM_ATTR
51 1
charge 1
@<TRIPOS>BOND
     1     1     2    1
     2     1    27    1
     3     1    28    1
     4     1    29    1
     5     2     3    1
     6     2     4    1
     7     2    51    1
     8     4     5    1
     9     4    30    1
    10     4    31    1
    11     5    14    1
    12     5     6    1
    13     6    11   ar
    14     6     7   ar
    15     7     8   ar
    16     7    32    1
    17     8     9   ar
    18     8    33    1
    19     9    10   ar
    20     9    34    1
    21    10    11   ar
    22    10    35    1
    23    11    12    1
    24    12    13    1
    25    13    18   ar
    26    13    14   ar
    27    14    15   ar
    28    15    16   ar
    29    15    36    1
    30    16    17   ar
    31    16    19    1
    32    17    18   ar
    33    17    37    1
    34    18    38    1
    35    19    20    2
    36    19    21    2
    37    19    22    1
    38    22    23    1
    39    22    24    1
    40    23    39    1
    41    23    40    1
    42    23    41    1
    43    24    42    1
    44    24    43    1
    45    24    44    1
    46    25    45    1
    47    25    46    1
    48    25    47    1
    49    25    51    1
    50    26    48    1
    51    26    49    1
    52    26    50    1
    53    26    51    1
    54    51    52    1
