@<TRIPOS>MOLECULE
ZINC03831128
 67 71 0 0 0
SMALL
GASTEIGER

@<TRIPOS>ATOM
      1 C           4.0493    6.3896   -5.7126 C.3     1  UNL1       -0.0025
      2 C           4.5430    5.7766   -4.4687 C.1     1  UNL1       -0.1027
      3 C           4.9368    5.2878   -3.4766 C.1     1  UNL1       -0.0673
      4 C           5.4306    4.6748   -2.2327 C.3     1  UNL1        0.1320
      5 C           5.8045    3.1927   -2.4776 C.3     1  UNL1       -0.0118
      6 C           4.8361    2.3470   -1.6084 C.3     1  UNL1       -0.0455
      7 C           3.6316    3.2797   -1.4226 C.3     1  UNL1       -0.0254
      8 H           3.0270    3.3094   -2.3290 H       1  UNL1        0.0313
      9 C           4.3234    4.6473   -1.1814 C.3     1  UNL1        0.0122
     10 C           3.2570    5.7195   -1.3220 C.3     1  UNL1       -0.0332
     11 C           2.2909    5.5562   -0.1388 C.3     1  UNL1        0.0066
     12 H           1.4326    6.2123   -0.2841 H       1  UNL1        0.0394
     13 C           1.8091    4.1236   -0.0260 C.2     1  UNL1       -0.0553
     14 C           0.5176    3.9297    0.2355 C.2     1  UNL1       -0.0436
     15 C          -0.4185    5.1047    0.4039 C.3     1  UNL1       -0.0204
     16 C          -1.7287    4.7945   -0.3263 C.3     1  UNL1        0.0139
     17 C          -2.2416    3.4409    0.0826 C.2     1  UNL1        0.1567
     18 O          -3.4391    3.2642    0.1835 O.2     1  UNL1       -0.2927
     19 C          -1.3628    2.3779    0.3549 C.2     1  UNL1       -0.0158
     20 C          -0.0288    2.5824    0.3946 C.2     1  UNL1       -0.0409
     21 C           0.9430    1.4481    0.6103 C.3     1  UNL1       -0.0268
     22 C           2.0978    1.6328   -0.3730 C.3     1  UNL1       -0.0422
     23 C           2.7770    2.9805   -0.1982 C.3     1  UNL1       -0.0150
     24 H           3.4226    2.9290    0.6785 H       1  UNL1        0.0349
     25 C           2.9990    5.9422    1.1342 C.ar    1  UNL1       -0.0401
     26 C           2.8496    5.1664    2.2692 C.ar    1  UNL1       -0.0563
     27 C           3.5016    5.5141    3.4359 C.ar    1  UNL1       -0.0404
     28 C           4.2992    6.6508    3.4717 C.ar    1  UNL1        0.0292
     29 C           4.4426    7.4310    2.3313 C.ar    1  UNL1       -0.0404
     30 C           3.7923    7.0744    1.1664 C.ar    1  UNL1       -0.0563
     31 N           4.9552    7.0088    4.6517 N.pl3   1  UNL1       -0.3360
     32 C           5.7956    8.2082    4.6877 C.3     1  UNL1        0.0004
     33 C           4.8028    6.1848    5.8534 C.3     1  UNL1        0.0004
     34 C           4.9339    4.7000    0.2206 C.3     1  UNL1       -0.0557
     35 O           6.5622    5.3954   -1.7405 O.3     1  UNL1       -0.3760
     36 H           4.8487    6.4028   -6.4534 H       1  UNL1        0.0362
     37 H           3.2092    5.8098   -6.0948 H       1  UNL1        0.0362
     38 H           3.7243    7.4103   -5.5105 H       1  UNL1        0.0362
     39 H           5.6760    2.9437   -3.5309 H       1  UNL1        0.0303
     40 H           6.8356    3.0120   -2.1739 H       1  UNL1        0.0303
     41 H           4.5419    1.4379   -2.1329 H       1  UNL1        0.0269
     42 H           5.2904    2.1083   -0.6468 H       1  UNL1        0.0269
     43 H           2.7196    5.5878   -2.2611 H       1  UNL1        0.0281
     44 H           3.7162    6.7077   -1.2928 H       1  UNL1        0.0281
     45 H          -0.6190    5.2639    1.4635 H       1  UNL1        0.0317
     46 H           0.0357    5.9986   -0.0234 H       1  UNL1        0.0317
     47 H          -2.4112    5.4881   -0.0956 H       1  UNL1        0.0348
     48 H          -1.5530    4.7988   -1.4020 H       1  UNL1        0.0348
     49 H          -1.7579    1.3880    0.5295 H       1  UNL1        0.0655
     50 H           1.3203    1.4741    1.6325 H       1  UNL1        0.0313
     51 H           0.4469    0.4958    0.4228 H       1  UNL1        0.0313
     52 H           1.7136    1.5580   -1.3903 H       1  UNL1        0.0274
     53 H           2.8305    0.8422   -0.2112 H       1  UNL1        0.0274
     54 H           2.2255    4.2854    2.2420 H       1  UNL1        0.0621
     55 H           3.3880    4.9053    4.3207 H       1  UNL1        0.0636
     56 H           5.0617    8.3156    2.3559 H       1  UNL1        0.0636
     57 H           3.9030    7.6808    0.2795 H       1  UNL1        0.0621
     58 H           5.1907    9.0671    4.9785 H       1  UNL1        0.0428
     59 H           6.5985    8.0677    5.4113 H       1  UNL1        0.0428
     60 H           6.2228    8.3823    3.7002 H       1  UNL1        0.0428
     61 H           5.5783    5.4190    5.8696 H       1  UNL1        0.0428
     62 H           4.8944    6.8135    6.7391 H       1  UNL1        0.0428
     63 H           3.8223    5.7087    5.8456 H       1  UNL1        0.0428
     64 H           4.2008    4.3540    0.9493 H       1  UNL1        0.0236
     65 H           5.8141    4.0583    0.2579 H       1  UNL1        0.0236
     66 H           5.2215    5.7253    0.4533 H       1  UNL1        0.0236
     67 H           7.2983    5.4463   -2.3655 H       1  UNL1        0.2114
@<TRIPOS>BOND
     1     1     2    1
     2     1    36    1
     3     1    37    1
     4     1    38    1
     5     2     3    3
     6     3     4    1
     7     4     9    1
     8     4     5    1
     9     4    35    1
    10     5     6    1
    11     5    39    1
    12     5    40    1
    13     6     7    1
    14     6    41    1
    15     6    42    1
    16     7     8    1
    17     7    23    1
    18     7     9    1
    19     9    10    1
    20     9    34    1
    21    10    11    1
    22    10    43    1
    23    10    44    1
    24    11    12    1
    25    11    13    1
    26    11    25    1
    27    13    23    1
    28    13    14    2
    29    14    20    1
    30    14    15    1
    31    15    16    1
    32    15    45    1
    33    15    46    1
    34    16    17    1
    35    16    47    1
    36    16    48    1
    37    17    18    2
    38    17    19    1
    39    19    20    2
    40    19    49    1
    41    20    21    1
    42    21    22    1
    43    21    50    1
    44    21    51    1
    45    22    23    1
    46    22    52    1
    47    22    53    1
    48    23    24    1
    49    25    30   ar
    50    25    26   ar
    51    26    27   ar
    52    26    54    1
    53    27    28   ar
    54    27    55    1
    55    28    29   ar
    56    28    31    1
    57    29    30   ar
    58    29    56    1
    59    30    57    1
    60    31    32    1
    61    31    33    1
    62    32    58    1
    63    32    59    1
    64    32    60    1
    65    33    61    1
    66    33    62    1
    67    33    63    1
    68    34    64    1
    69    34    65    1
    70    34    66    1
    71    35    67    1
