@<TRIPOS>MOLECULE
ZINC14693646
 73 75 0 0 0
SMALL
GASTEIGER

@<TRIPOS>ATOM
      1 C          -4.3066    0.7358    2.6519 C.3     1  UNL1       -0.0621
      2 C          -2.8421    1.1658    2.5448 C.3     1  UNL1       -0.0405
      3 H          -2.2257    0.5132    3.1630 H       1  UNL1        0.0301
      4 C          -2.6983    2.6106    3.0274 C.3     1  UNL1       -0.0501
      5 C          -3.1724    2.7132    4.4784 C.3     1  UNL1       -0.0502
      6 C          -3.0286    4.1580    4.9610 C.3     1  UNL1       -0.0245
      7 C          -3.5028    4.2607    6.4120 C.3     1  UNL1        0.0605
      8 C          -3.4766    5.7250    6.8547 C.3     1  UNL1       -0.0363
      9 C          -4.9299    3.7201    6.5216 C.3     1  UNL1       -0.0363
     10 O          -2.6371    3.4937    7.2514 O.3     1  UNL1       -0.3891
     11 C          -2.3869    1.0672    1.0875 C.3     1  UNL1       -0.0325
     12 H          -2.5388    0.0559    0.7101 H       1  UNL1        0.0309
     13 C          -3.1657    2.0675    0.2198 C.3     1  UNL1       -0.0489
     14 C          -2.1195    3.0906   -0.3060 C.3     1  UNL1       -0.0457
     15 C          -1.0038    2.9996    0.7375 C.3     1  UNL1       -0.0139
     16 H          -1.2823    3.5140    1.6573 H       1  UNL1        0.0351
     17 C          -0.9238    1.4632    0.9631 C.3     1  UNL1       -0.0225
     18 C          -0.0124    1.2215    2.1437 C.3     1  UNL1       -0.0465
     19 C           1.4112    1.6198    1.7197 C.3     1  UNL1       -0.0488
     20 C           1.4860    3.0838    1.2904 C.3     1  UNL1       -0.0312
     21 C           0.3719    3.4144    0.3074 C.2     1  UNL1       -0.0659
     22 C           0.6025    4.0287   -0.8528 C.2     1  UNL1       -0.0620
     23 C           1.9678    4.4107   -1.2206 C.2     1  UNL1       -0.0583
     24 C           2.2011    5.0324   -2.3949 C.2     1  UNL1       -0.0423
     25 C           1.0781    5.3532   -3.3609 C.3     1  UNL1       -0.0013
     26 C           1.5148    4.9290   -4.7668 C.3     1  UNL1        0.0595
     27 H           1.6788    3.8516   -4.7856 H       1  UNL1        0.0596
     28 C           2.8105    5.6472   -5.1456 C.3     1  UNL1       -0.0226
     29 C           3.9522    5.1690   -4.2427 C.3     1  UNL1       -0.0256
     30 C           3.5632    5.4391   -2.7989 C.2     1  UNL1       -0.0511
     31 C           4.4058    6.0106   -1.9386 C.2     1  UNL1       -0.0952
     32 O           0.4923    5.2702   -5.7050 O.3     1  UNL1       -0.3915
     33 C          -0.3257    0.8027   -0.2806 C.3     1  UNL1       -0.0588
     34 H          -4.5983    0.6978    3.7014 H       1  UNL1        0.0233
     35 H          -4.9355    1.4540    2.1258 H       1  UNL1        0.0233
     36 H          -4.4292   -0.2506    2.2047 H       1  UNL1        0.0233
     37 H          -1.6527    2.9122    2.9646 H       1  UNL1        0.0268
     38 H          -3.3035    3.2651    2.4002 H       1  UNL1        0.0268
     39 H          -4.2180    2.4116    4.5412 H       1  UNL1        0.0266
     40 H          -2.5672    2.0587    5.1056 H       1  UNL1        0.0266
     41 H          -1.9830    4.4596    4.8982 H       1  UNL1        0.0293
     42 H          -3.6338    4.8125    4.3338 H       1  UNL1        0.0293
     43 H          -4.1369    6.3100    6.2145 H       1  UNL1        0.0257
     44 H          -3.8144    5.7981    7.8885 H       1  UNL1        0.0257
     45 H          -2.4599    6.1101    6.7766 H       1  UNL1        0.0257
     46 H          -4.9485    2.6769    6.2063 H       1  UNL1        0.0257
     47 H          -5.2677    3.7932    7.5554 H       1  UNL1        0.0257
     48 H          -5.5902    4.3051    5.8814 H       1  UNL1        0.0257
     49 H          -1.7141    3.7813    7.2319 H       1  UNL1        0.2101
     50 H          -3.9192    2.5776    0.8200 H       1  UNL1        0.0268
     51 H          -3.6390    1.5528   -0.6163 H       1  UNL1        0.0268
     52 H          -2.5416    4.0951   -0.3336 H       1  UNL1        0.0271
     53 H          -1.7522    2.8004   -1.2904 H       1  UNL1        0.0271
     54 H          -0.3314    1.8321    2.9884 H       1  UNL1        0.0271
     55 H          -0.0351    0.1671    2.4189 H       1  UNL1        0.0271
     56 H           2.0893    1.4604    2.5581 H       1  UNL1        0.0268
     57 H           1.7235    0.9892    0.8872 H       1  UNL1        0.0268
     58 H           1.3898    3.7210    2.1695 H       1  UNL1        0.0310
     59 H           2.4498    3.2702    0.8166 H       1  UNL1        0.0310
     60 H          -0.2175    4.2447   -1.5217 H       1  UNL1        0.0617
     61 H           2.7877    4.1947   -0.5517 H       1  UNL1        0.0620
     62 H           0.1799    4.8059   -3.0746 H       1  UNL1        0.0338
     63 H           0.8762    6.4243   -3.3466 H       1  UNL1        0.0338
     64 H           3.0551    5.4290   -6.1852 H       1  UNL1        0.0293
     65 H           2.6780    6.7222   -5.0235 H       1  UNL1        0.0293
     66 H           4.1136    4.1011   -4.3894 H       1  UNL1        0.0314
     67 H           4.8643    5.7148   -4.4840 H       1  UNL1        0.0314
     68 H           4.0987    6.1867   -0.9182 H       1  UNL1        0.0538
     69 H           5.3955    6.2975   -2.2618 H       1  UNL1        0.0538
     70 H          -0.3592    4.8466   -5.5302 H       1  UNL1        0.2098
     71 H          -0.2372   -0.2710   -0.1149 H       1  UNL1        0.0235
     72 H           0.6609    1.2227   -0.4762 H       1  UNL1        0.0235
     73 H          -0.9748    0.9859   -1.1370 H       1  UNL1        0.0235
@<TRIPOS>BOND
     1     1     2    1
     2     1    34    1
     3     1    35    1
     4     1    36    1
     5     2     3    1
     6     2     4    1
     7     2    11    1
     8     4     5    1
     9     4    37    1
    10     4    38    1
    11     5     6    1
    12     5    39    1
    13     5    40    1
    14     6     7    1
    15     6    41    1
    16     6    42    1
    17     7     8    1
    18     7     9    1
    19     7    10    1
    20     8    43    1
    21     8    44    1
    22     8    45    1
    23     9    46    1
    24     9    47    1
    25     9    48    1
    26    10    49    1
    27    11    12    1
    28    11    17    1
    29    11    13    1
    30    13    14    1
    31    13    50    1
    32    13    51    1
    33    14    15    1
    34    14    52    1
    35    14    53    1
    36    15    16    1
    37    15    21    1
    38    15    17    1
    39    17    18    1
    40    17    33    1
    41    18    19    1
    42    18    54    1
    43    18    55    1
    44    19    20    1
    45    19    56    1
    46    19    57    1
    47    20    21    1
    48    20    58    1
    49    20    59    1
    50    21    22    2
    51    22    23    1
    52    22    60    1
    53    23    24    2
    54    23    61    1
    55    24    30    1
    56    24    25    1
    57    25    26    1
    58    25    62    1
    59    25    63    1
    60    26    27    1
    61    26    28    1
    62    26    32    1
    63    28    29    1
    64    28    64    1
    65    28    65    1
    66    29    30    1
    67    29    66    1
    68    29    67    1
    69    30    31    2
    70    31    68    1
    71    31    69    1
    72    32    70    1
    73    33    71    1
    74    33    72    1
    75    33    73    1
