@<TRIPOS>MOLECULE
ZINC00968273
 54 56 0 0 0
SMALL
GASTEIGER

@<TRIPOS>ATOM
      1 C           1.8172    3.6413   -0.3862 C.ar    1  UNL1       -0.0617
      2 C           1.0107    2.5228   -0.2898 C.ar    1  UNL1       -0.0614
      3 C          -0.3591    2.6665   -0.1721 C.ar    1  UNL1       -0.0558
      4 C          -0.9214    3.9289   -0.1402 C.ar    1  UNL1       -0.0157
      5 C          -0.1149    5.0474   -0.2366 C.ar    1  UNL1       -0.0558
      6 C           1.2544    4.9036   -0.3596 C.ar    1  UNL1       -0.0614
      7 C          -2.4143    4.0856   -0.0066 C.3     1  UNL1        0.0985
      8 C          -3.0511    4.1097   -1.3975 C.3     1  UNL1        0.0208
      9 C          -4.3076    4.9823   -1.3681 C.3     1  UNL1       -0.0289
     10 C          -3.9171    5.8563   -3.5917 C.3     1  UNL1       -0.0319
     11 C          -4.4385    5.8477   -5.0305 C.3     1  UNL1       -0.0123
     12 C          -5.8272    6.4916   -5.0688 C.3     1  UNL1       -0.0434
     13 C          -6.7611    5.7285   -4.1253 C.3     1  UNL1       -0.0123
     14 C          -6.1724    5.7405   -2.7128 C.3     1  UNL1       -0.0319
     15 C          -2.9808    2.9109    0.7934 C.3     1  UNL1       -0.0078
     16 C          -4.4762    3.1301    1.0317 C.3     1  UNL1       -0.0473
     17 C          -5.0427    1.9553    1.8316 C.3     1  UNL1       -0.0527
     18 C          -4.3207    1.8591    3.1771 C.3     1  UNL1       -0.0530
     19 C          -2.8253    1.6399    2.9388 C.3     1  UNL1       -0.0527
     20 C          -2.2588    2.8146    2.1389 C.3     1  UNL1       -0.0473
     21 O          -2.7060    5.3089    0.6721 O.3     1  UNL1       -0.3835
     22 H           2.8870    3.5290   -0.4827 H       1  UNL1        0.0618
     23 H           1.4504    1.5366   -0.3109 H       1  UNL1        0.0618
     24 H          -0.9896    1.7925   -0.1012 H       1  UNL1        0.0621
     25 H          -0.5547    6.0336   -0.2162 H       1  UNL1        0.0621
     26 H           1.8845    5.7775   -0.4353 H       1  UNL1        0.0618
     27 H          -2.3407    4.5198   -2.1153 H       1  UNL1        0.0348
     28 H          -3.3201    3.0952   -1.6916 H       1  UNL1        0.0348
     29 H          -5.0562    4.5197   -0.7250 H       1  UNL1        0.0815
     30 H          -4.0555    5.9693   -0.9804 H       1  UNL1        0.0815
     31 H          -3.8389    6.8850   -3.2398 H       1  UNL1        0.0814
     32 H          -2.9345    5.3856   -3.5587 H       1  UNL1        0.0814
     33 H          -4.5039    4.8200   -5.3877 H       1  UNL1        0.0317
     34 H          -3.7580    6.4121   -5.6681 H       1  UNL1        0.0317
     35 H          -6.2207    6.4486   -6.0843 H       1  UNL1        0.0269
     36 H          -5.7566    7.5313   -4.7492 H       1  UNL1        0.0269
     37 H          -6.8630    4.6989   -4.4683 H       1  UNL1        0.0317
     38 H          -7.7399    6.2081   -4.1157 H       1  UNL1        0.0317
     39 H          -6.8278    5.1858   -2.0414 H       1  UNL1        0.0814
     40 H          -6.0836    6.7698   -2.3652 H       1  UNL1        0.0814
     41 H          -2.8335    1.9864    0.2351 H       1  UNL1        0.0332
     42 H          -4.6235    4.0545    1.5900 H       1  UNL1        0.0269
     43 H          -4.9906    3.1986    0.0731 H       1  UNL1        0.0269
     44 H          -4.8954    1.0309    1.2733 H       1  UNL1        0.0265
     45 H          -6.1081    2.1115    2.0014 H       1  UNL1        0.0265
     46 H          -4.7243    1.0222    3.7470 H       1  UNL1        0.0265
     47 H          -4.4680    2.7836    3.7354 H       1  UNL1        0.0265
     48 H          -2.6780    0.7154    2.3805 H       1  UNL1        0.0265
     49 H          -2.3109    1.5714    3.8974 H       1  UNL1        0.0265
     50 H          -1.1934    2.6585    1.9691 H       1  UNL1        0.0269
     51 H          -2.4061    3.7391    2.6972 H       1  UNL1        0.0269
     52 H          -2.3755    6.0976    0.2207 H       1  UNL1        0.2106
     53 N          -4.8472    5.0854   -2.7397 N.4     1  UNL1        0.2353
     54 H          -4.9505    4.1410   -3.1292 H       1  UNL1        0.2033
@<TRIPOS>UNITY_ATOM_ATTR
53 1
charge 1
@<TRIPOS>BOND
     1     1     6   ar
     2     1     2   ar
     3     1    22    1
     4     2     3   ar
     5     2    23    1
     6     3     4   ar
     7     3    24    1
     8     4     5   ar
     9     4     7    1
    10     5     6   ar
    11     5    25    1
    12     6    26    1
    13     7     8    1
    14     7    15    1
    15     7    21    1
    16     8     9    1
    17     8    27    1
    18     8    28    1
    19     9    29    1
    20     9    30    1
    21     9    53    1
    22    10    11    1
    23    10    31    1
    24    10    32    1
    25    10    53    1
    26    11    12    1
    27    11    33    1
    28    11    34    1
    29    12    13    1
    30    12    35    1
    31    12    36    1
    32    13    14    1
    33    13    37    1
    34    13    38    1
    35    14    39    1
    36    14    40    1
    37    14    53    1
    38    15    20    1
    39    15    16    1
    40    15    41    1
    41    16    17    1
    42    16    42    1
    43    16    43    1
    44    17    18    1
    45    17    44    1
    46    17    45    1
    47    18    19    1
    48    18    46    1
    49    18    47    1
    50    19    20    1
    51    19    48    1
    52    19    49    1
    53    20    50    1
    54    20    51    1
    55    21    52    1
    56    53    54    1
