@<TRIPOS>MOLECULE
ZINC00403529
 51 56 0 0 0
SMALL
GASTEIGER

@<TRIPOS>ATOM
      1 C          -0.8591    0.8539    5.0719 C.2     1  UNL1       -0.0960
      2 C          -1.2810    0.6520    3.8483 C.2     1  UNL1       -0.0357
      3 C          -2.6850    0.1663    3.6483 C.3     1  UNL1       -0.0257
      4 C          -3.3163    0.8781    2.4499 C.3     1  UNL1       -0.0139
      5 C          -2.4446    0.6320    1.2198 C.3     1  UNL1        0.1223
      6 C          -3.0747    1.2977   -0.0070 C.3     1  UNL1        0.0136
      7 H          -4.0433    0.8291   -0.1812 H       1  UNL1        0.0883
      8 C          -3.3184    2.7892    0.1512 C.3     1  UNL1        0.0187
      9 C          -2.2834    3.4744    0.9850 C.ar    1  UNL1       -0.0343
     10 C          -2.2658    4.8296    1.2655 C.ar    1  UNL1       -0.0544
     11 C          -1.3274    5.3482    2.1423 C.ar    1  UNL1       -0.0162
     12 C          -0.3783    4.5650    2.7957 C.ar    1  UNL1        0.1588
     13 C          -0.3778    3.1953    2.5089 C.ar    1  UNL1        0.1668
     14 C          -1.2902    2.7266    1.5743 C.ar    1  UNL1        0.0145
     15 C          -1.0660    1.2428    1.4186 C.3     1  UNL1        0.0789
     16 C          -0.3361    0.9174    2.7141 C.3     1  UNL1        0.1339
     17 H           0.3606    0.0900    2.5792 H       1  UNL1        0.0791
     18 O           0.3496    2.1717    3.0059 O.3     1  UNL1       -0.4796
     19 C          -0.1969    0.9803    0.1906 C.3     1  UNL1        0.0038
     20 C          -0.8859    1.5990   -1.0320 C.3     1  UNL1       -0.0305
     21 C          -2.8751    1.5311   -2.4081 C.3     1  UNL1       -0.0286
     22 C          -2.1199    0.9996   -3.6279 C.3     1  UNL1       -0.0007
     23 C          -1.4430    2.0237   -4.5412 C.3     1  UNL1       -0.0450
     24 C          -2.7078    1.2990   -5.0084 C.3     1  UNL1       -0.0450
     25 O           0.5082    5.1074    3.6729 O.3     1  UNL1       -0.5033
     26 O          -2.3239   -0.7736    0.9924 O.3     1  UNL1       -0.3819
     27 H          -1.5183    0.6705    5.9076 H       1  UNL1        0.0536
     28 H           0.1479    1.2036    5.2452 H       1  UNL1        0.0536
     29 H          -3.2713    0.3748    4.5432 H       1  UNL1        0.0312
     30 H          -2.6740   -0.9084    3.4664 H       1  UNL1        0.0312
     31 H          -3.3741    1.9482    2.6490 H       1  UNL1        0.0298
     32 H          -4.3165    0.4819    2.2745 H       1  UNL1        0.0298
     33 H          -3.3314    3.2480   -0.8375 H       1  UNL1        0.0369
     34 H          -4.2938    2.9367    0.6148 H       1  UNL1        0.0369
     35 H          -2.9861    5.4851    0.7987 H       1  UNL1        0.0622
     36 H          -1.3314    6.4120    2.3284 H       1  UNL1        0.0655
     37 H          -0.0837   -0.0938    0.0437 H       1  UNL1        0.0328
     38 H           0.7830    1.4370    0.3299 H       1  UNL1        0.0328
     39 H          -0.9555    2.6788   -0.9006 H       1  UNL1        0.0815
     40 H          -0.3022    1.3799   -1.9261 H       1  UNL1        0.0815
     41 H          -3.9083    1.1856   -2.4414 H       1  UNL1        0.0817
     42 H          -2.8560    2.6209   -2.4154 H       1  UNL1        0.0817
     43 H          -1.6209    0.0403   -3.4907 H       1  UNL1        0.0352
     44 H          -1.5357    3.0761   -4.2729 H       1  UNL1        0.0270
     45 H          -0.4989    1.7380   -5.0050 H       1  UNL1        0.0270
     46 H          -2.5953    0.5368   -5.7794 H       1  UNL1        0.0270
     47 H          -3.6328    1.8743   -5.0475 H       1  UNL1        0.0270
     48 H           0.1951    5.1256    4.5877 H       1  UNL1        0.2923
     49 H          -3.1662   -1.2192    0.8281 H       1  UNL1        0.2105
     50 N          -2.2322    1.0027   -1.1899 N.4     1  UNL1        0.2399
     51 H          -2.1342   -0.0154   -1.2802 H       1  UNL1        0.2037
@<TRIPOS>UNITY_ATOM_ATTR
50 1
charge 1
@<TRIPOS>BOND
     1     1     2    2
     2     1    27    1
     3     1    28    1
     4     2    16    1
     5     2     3    1
     6     3     4    1
     7     3    29    1
     8     3    30    1
     9     4     5    1
    10     4    31    1
    11     4    32    1
    12     5    15    1
    13     5     6    1
    14     5    26    1
    15     6     7    1
    16     6     8    1
    17     6    50    1
    18     8     9    1
    19     8    33    1
    20     8    34    1
    21     9    14   ar
    22     9    10   ar
    23    10    11   ar
    24    10    35    1
    25    11    12   ar
    26    11    36    1
    27    12    13   ar
    28    12    25    1
    29    13    18    1
    30    13    14   ar
    31    14    15    1
    32    15    16    1
    33    15    19    1
    34    16    17    1
    35    16    18    1
    36    19    20    1
    37    19    37    1
    38    19    38    1
    39    20    39    1
    40    20    40    1
    41    20    50    1
    42    21    22    1
    43    21    41    1
    44    21    42    1
    45    21    50    1
    46    22    24    1
    47    22    23    1
    48    22    43    1
    49    23    24    1
    50    23    44    1
    51    23    45    1
    52    24    46    1
    53    24    47    1
    54    25    48    1
    55    26    49    1
    56    50    51    1
