@<TRIPOS>MOLECULE
ZINC11678088
 65 69 0 0 0
SMALL
GASTEIGER

@<TRIPOS>ATOM
      1 C           2.9239    0.2211    2.5211 C.3     1  UNL1       -0.0359
      2 C           3.7928    0.4466    1.2821 C.3     1  UNL1        0.0900
      3 H           4.7368   -0.0859    1.3982 H       1  UNL1        0.0622
      4 C           4.0679    1.9435    1.1170 C.3     1  UNL1        0.1234
      5 H           3.1229    2.4814    1.0415 H       1  UNL1        0.0676
      6 C           4.8872    2.1666   -0.1579 C.3     1  UNL1        0.0093
      7 H           5.8527    1.6698   -0.0625 H       1  UNL1        0.0878
      8 C           4.1250    1.5806   -1.3504 C.3     1  UNL1        0.0439
      9 C           3.8477    0.0977   -1.0900 C.3     1  UNL1        0.1655
     10 H           4.7923   -0.4395   -1.0051 H       1  UNL1        0.0912
     11 O           3.1095   -0.0412    0.1257 O.3     1  UNL1       -0.3454
     12 O           3.0880   -0.4425   -2.1731 O.3     1  UNL1       -0.3431
     13 C           2.9799   -1.8672   -2.1537 C.3     1  UNL1        0.0934
     14 H           2.9325   -2.2096   -1.1200 H       1  UNL1        0.0649
     15 C           4.2077   -2.4742   -2.8288 C.3     1  UNL1        0.0140
     16 C           3.9728   -3.9807   -2.9917 C.3     1  UNL1        0.1300
     17 C           2.8885   -4.1856   -4.0472 C.3     1  UNL1        0.0122
     18 C           1.6775   -3.3442   -3.7355 C.ar    1  UNL1        0.0070
     19 C           1.7200   -2.2795   -2.8709 C.ar    1  UNL1        0.0302
     20 C           0.5630   -1.5286   -2.6240 C.ar    1  UNL1        0.1345
     21 C          -0.6394   -1.8544   -3.2479 C.ar    1  UNL1        0.0784
     22 C          -0.6839   -2.9501   -4.1333 C.ar    1  UNL1        0.0782
     23 C           0.4758   -3.6860   -4.3696 C.ar    1  UNL1        0.1322
     24 O           0.4407   -4.7419   -5.2199 O.3     1  UNL1       -0.5057
     25 C          -1.9471   -3.3091   -4.8003 C.2     1  UNL1        0.1982
     26 O          -1.9857   -4.2548   -5.5636 O.2     1  UNL1       -0.2865
     27 C          -3.1672   -2.5171   -4.5401 C.ar    1  UNL1        0.0367
     28 C          -4.3646   -2.8482   -5.1659 C.ar    1  UNL1       -0.0500
     29 C          -5.5060   -2.1035   -4.9180 C.ar    1  UNL1       -0.0576
     30 C          -5.4682   -1.0295   -4.0520 C.ar    1  UNL1       -0.0194
     31 C          -4.2812   -0.6808   -3.4151 C.ar    1  UNL1        0.1283
     32 C          -3.1212   -1.4234   -3.6559 C.ar    1  UNL1        0.0745
     33 C          -1.8565   -1.0653   -2.9884 C.2     1  UNL1        0.2016
     34 O          -1.8176   -0.1194   -2.2248 O.2     1  UNL1       -0.2864
     35 O          -4.2496    0.3748   -2.5646 O.3     1  UNL1       -0.5060
     36 O           0.6140   -0.4761   -1.7702 O.3     1  UNL1       -0.5057
     37 C           3.5230   -4.5695   -1.6794 C.2     1  UNL1        0.1620
     38 O           2.3456   -4.7195   -1.4568 O.2     1  UNL1       -0.2946
     39 C           4.5426   -4.9711   -0.6449 C.3     1  UNL1       -0.0032
     40 O           5.1821   -4.6139   -3.4144 O.3     1  UNL1       -0.3806
     41 O           4.8019    2.4215    2.2461 O.3     1  UNL1       -0.3836
     42 H           2.0251    0.8339    2.4510 H       1  UNL1        0.0255
     43 H           2.6430   -0.8303    2.5815 H       1  UNL1        0.0255
     44 H           3.4845    0.4993    3.4136 H       1  UNL1        0.0255
     45 H           4.7258    1.6856   -2.2538 H       1  UNL1        0.0370
     46 H           3.1812    2.1109   -1.4769 H       1  UNL1        0.0370
     47 H           4.3523   -2.0170   -3.8077 H       1  UNL1        0.0326
     48 H           5.0889   -2.3040   -2.2102 H       1  UNL1        0.0326
     49 H           3.2804   -3.9029   -5.0243 H       1  UNL1        0.0347
     50 H           2.5998   -5.2365   -4.0663 H       1  UNL1        0.0347
     51 H           0.2277   -5.5833   -4.7936 H       1  UNL1        0.2922
     52 H          -4.4043   -3.6864   -5.8458 H       1  UNL1        0.0625
     53 H          -6.4329   -2.3651   -5.4066 H       1  UNL1        0.0619
     54 H          -6.3651   -0.4570   -3.8671 H       1  UNL1        0.0654
     55 H          -4.0371    1.2167   -2.9902 H       1  UNL1        0.2922
     56 H           0.4935   -0.7169   -0.8415 H       1  UNL1        0.2922
     57 H           5.4613   -4.7797   -0.9905 H       1  UNL1        0.0307
     58 H           4.3735   -4.4046    0.2709 H       1  UNL1        0.0307
     59 H           4.4478   -6.0366   -0.4358 H       1  UNL1        0.0307
     60 H           5.1036   -5.5699   -3.5368 H       1  UNL1        0.2108
     61 H           5.6301    3.7787   -1.2008 H       1  UNL1        0.1998
     62 H           4.2101    4.0962   -0.3954 H       1  UNL1        0.1998
     63 H           4.3438    2.3075    3.0900 H       1  UNL1        0.2102
     64 N           5.1048    3.6120   -0.3440 N.4     1  UNL1        0.2228
     65 H           5.6387    3.9783    0.4528 H       1  UNL1        0.1998
@<TRIPOS>UNITY_ATOM_ATTR
64 1
charge 1
@<TRIPOS>BOND
     1     1     2    1
     2     1    42    1
     3     1    43    1
     4     1    44    1
     5     2     3    1
     6     2    11    1
     7     2     4    1
     8     4     5    1
     9     4     6    1
    10     4    41    1
    11     6     7    1
    12     6     8    1
    13     6    64    1
    14     8     9    1
    15     8    45    1
    16     8    46    1
    17     9    10    1
    18     9    11    1
    19     9    12    1
    20    12    13    1
    21    13    14    1
    22    13    19    1
    23    13    15    1
    24    15    16    1
    25    15    47    1
    26    15    48    1
    27    16    17    1
    28    16    37    1
    29    16    40    1
    30    17    18    1
    31    17    49    1
    32    17    50    1
    33    18    23   ar
    34    18    19   ar
    35    19    20   ar
    36    20    21   ar
    37    20    36    1
    38    21    33    1
    39    21    22   ar
    40    22    23   ar
    41    22    25    1
    42    23    24    1
    43    24    51    1
    44    25    26    2
    45    25    27    1
    46    27    32   ar
    47    27    28   ar
    48    28    29   ar
    49    28    52    1
    50    29    30   ar
    51    29    53    1
    52    30    31   ar
    53    30    54    1
    54    31    32   ar
    55    31    35    1
    56    32    33    1
    57    33    34    2
    58    35    55    1
    59    36    56    1
    60    37    38    2
    61    37    39    1
    62    39    57    1
    63    39    58    1
    64    39    59    1
    65    40    60    1
    66    41    63    1
    67    61    64    1
    68    62    64    1
    69    64    65    1
