@<TRIPOS>MOLECULE
ZINC02005546
 35 35 0 0 0
SMALL
GASTEIGER

@<TRIPOS>ATOM
      1 C          -2.9267   -4.0490   -0.1175 C.3     1  UNL1       -0.0653
      2 C          -2.9086   -2.5192   -0.1094 C.3     1  UNL1       -0.0556
      3 C          -1.4645   -2.0269    0.0052 C.3     1  UNL1       -0.0493
      4 C          -1.4463   -0.4970    0.0132 C.3     1  UNL1       -0.0211
      5 H          -1.9643   -0.1228   -0.8699 H       1  UNL1        0.0313
      6 C          -2.1495    0.0148    1.2720 C.3     1  UNL1       -0.0610
      7 C           0.0021   -0.0041    0.0020 C.3     1  UNL1        0.1310
      8 C           0.6713   -0.4746    1.2803 C.2     1  UNL1        0.2360
      9 O           0.2395   -0.1665    2.3704 O.2     1  UNL1       -0.2742
     10 N           1.7689   -1.2522    1.1510 N.am    1  UNL1       -0.2412
     11 C           2.2529   -1.5981   -0.0715 C.2     1  UNL1        0.2779
     12 N           1.7297   -1.2306   -1.2159 N.am    1  UNL1       -0.1307
     13 C           0.6463   -0.4605   -1.2930 C.2     1  UNL1        0.2558
     14 O           0.1878   -0.1360   -2.3704 O.2     1  UNL1       -0.2724
     15 O           3.3499   -2.3756   -0.1097 O.2     1  UNL1       -0.4829
     16 C          -0.0187    1.5258    0.0104 C.3     1  UNL1       -0.0122
     17 C           1.3951    2.0474   -0.0003 C.2     1  UNL1       -0.0897
     18 C           1.7756    2.8896   -0.9288 C.2     1  UNL1       -0.1026
     19 H          -2.3497   -4.4148   -0.9668 H       1  UNL1        0.0230
     20 H          -2.4879   -4.4225    0.8078 H       1  UNL1        0.0230
     21 H          -3.9555   -4.3997   -0.1991 H       1  UNL1        0.0230
     22 H          -3.4856   -2.1534    0.7399 H       1  UNL1        0.0263
     23 H          -3.3474   -2.1457   -1.0347 H       1  UNL1        0.0263
     24 H          -0.8874   -2.3926   -0.8442 H       1  UNL1        0.0268
     25 H          -1.0256   -2.4003    0.9304 H       1  UNL1        0.0268
     26 H          -1.6315   -0.3594    2.1551 H       1  UNL1        0.0233
     27 H          -2.1366    1.1047    1.2777 H       1  UNL1        0.0233
     28 H          -3.1813   -0.3364    1.2799 H       1  UNL1        0.0233
     29 H           2.2216   -1.5703    1.9477 H       1  UNL1        0.1590
     30 H           3.6871   -2.6166   -0.9834 H       1  UNL1        0.2949
     31 H          -0.5459    1.8868   -0.8726 H       1  UNL1        0.0322
     32 H          -0.5289    1.8773    0.9072 H       1  UNL1        0.0322
     33 H           2.0947    1.7269    0.7575 H       1  UNL1        0.0567
     34 H           1.0760    3.2101   -1.6866 H       1  UNL1        0.0532
     35 H           2.7888    3.2634   -0.9364 H       1  UNL1        0.0532
@<TRIPOS>BOND
     1     1     2    1
     2     1    19    1
     3     1    20    1
     4     1    21    1
     5     2     3    1
     6     2    22    1
     7     2    23    1
     8     3     4    1
     9     3    24    1
    10     3    25    1
    11     4     5    1
    12     4     6    1
    13     4     7    1
    14     6    26    1
    15     6    27    1
    16     6    28    1
    17     7    13    1
    18     7     8    1
    19     7    16    1
    20     8     9    2
    21     8    10   am
    22    10    11    1
    23    10    29    1
    24    11    12    2
    25    11    15    1
    26    12    13    1
    27    13    14    2
    28    15    30    1
    29    16    17    1
    30    16    31    1
    31    16    32    1
    32    17    18    2
    33    17    33    1
    34    18    34    1
    35    18    35    1
