@<TRIPOS>MOLECULE
ZINC01842580
 31 32 0 0 0
SMALL
GASTEIGER

@<TRIPOS>ATOM
      1 C5M        -2.7200    0.2134    6.0947 C.3     1    T1       -0.0332
      2 C5         -3.3890   -0.6045    5.0202 C.ar    1    T1        0.0302
      3 C6         -2.9925   -0.4994    3.7338 C.ar    1    T1        0.0199
      4 N1         -3.6105   -1.2497    2.7708 N.ar    1    T1       -0.2737
      5 C2         -4.6129   -2.0873    3.0929 C.ar    1    T1        0.3313
      6 O2         -5.1513   -2.7412    2.2207 O.2     1    T1       -0.2464
      7 N3         -5.0246   -2.2154    4.3680 N.ar    1    T1       -0.2747
      8 H3         -5.7660   -2.8484    4.5907 H       1    T1        0.1734
      9 C4         -4.4414   -1.4936    5.3462 C.ar    1    T1        0.2568
     10 O4         -4.8166   -1.6052    6.4994 O.2     1    T1       -0.2674
     11 C1*        -3.1807   -1.1355    1.3749 C.3     1    T1        0.1422
     12 H1*        -4.0127   -0.8159    0.7474 H       1    T1        0.0840
     13 C2*        -2.6134   -2.4825    0.8749 C.3     1    T1        0.0214
     14 C3*        -1.4374   -2.0775   -0.0417 C.3     1    T1        0.0876
     15 H3*        -1.6108   -2.4231   -1.0608 H       1    T1        0.0621
     16 C4*        -1.4333   -0.5336    0.0129 C.3     1    T1        0.1100
     17 H4*        -1.9955   -0.1212   -0.8249 H       1    T1        0.0646
     18 O4*        -2.0803   -0.2069    1.2621 O.3     1    T1       -0.3483
     19 C5*         0.0021   -0.0041    0.0020 C.3     1    T1        0.0729
     20 O5*        -0.0173    1.4248    0.0099 O.3     1    T1       -0.3924
     21 O3*        -0.2065   -2.5996    0.4627 O.3     1    T1       -0.3890
     22 H5M1       -3.2411    1.1644    6.2049 H       1    T1        0.0280
     23 H5M2       -2.7528   -0.3305    7.0387 H       1    T1        0.0280
     24 H5M3       -1.6821    0.3979    5.8175 H       1    T1        0.0280
     25 H6         -2.1911    0.1734    3.4663 H       1    T1        0.0816
     26 H2*1       -2.2559   -3.0810    1.7128 H       1    T1        0.0335
     27 H2*2       -3.3690   -3.0295    0.3110 H       1    T1        0.0335
     28 H5*1        0.5123   -0.3556   -0.8948 H       1    T1        0.0584
     29 H5*2        0.5293   -0.3651    0.8851 H       1    T1        0.0584
     30 H5*         0.8606    1.8301    0.0037 H       1    T1        0.2095
     31 H3*        -0.1549   -3.5651    0.4516 H       1    T1        0.2099
@<TRIPOS>BOND
     1     1     2    1
     2     1    22    1
     3     1    23    1
     4     1    24    1
     5     2     9   ar
     6     2     3   ar
     7     3     4   ar
     8     3    25    1
     9     4     5   ar
    10     4    11    1
    11     5     6    2
    12     5     7   ar
    13     7     8    1
    14     7     9   ar
    15     9    10    2
    16    11    12    1
    17    11    18    1
    18    11    13    1
    19    13    14    1
    20    13    26    1
    21    13    27    1
    22    14    15    1
    23    14    16    1
    24    14    21    1
    25    16    17    1
    26    16    18    1
    27    16    19    1
    28    19    20    1
    29    19    28    1
    30    19    29    1
    31    20    30    1
    32    21    31    1
