@<TRIPOS>MOLECULE
ZINC03830442
 51 54 0 0 0
SMALL
GASTEIGER

@<TRIPOS>ATOM
      1 C          -6.9902   -2.8969    0.2720 C.3     1  UNL1        0.0346
      2 N          -6.2040   -3.3287    1.4303 N.ar    1  UNL1       -0.2233
      3 C          -5.0301   -2.8131    1.8655 C.ar    1  UNL1        0.2094
      4 N          -4.6817   -3.4942    2.9356 N.ar    1  UNL1       -0.1015
      5 N          -5.5529   -4.4013    3.1948 N.ar    1  UNL1       -0.0222
      6 N          -6.5053   -4.3690    2.3266 N.ar    1  UNL1       -0.0435
      7 S          -4.1405   -1.4766    1.1395 S.3     1  UNL1       -0.0801
      8 C          -2.7297   -1.3873    2.2699 C.3     1  UNL1        0.0251
      9 C          -1.8050   -0.2805    1.8328 C.2     1  UNL1       -0.0264
     10 C          -0.9552   -0.5854    0.8624 C.2     1  UNL1        0.0608
     11 N          -0.0193    0.3601    0.4210 N.am    1  UNL1       -0.2484
     12 C          -0.0488    1.8318    0.6389 C.3     1  UNL1        0.1320
     13 H          -0.6847    2.3834   -0.0535 H       1  UNL1        0.0672
     14 C           1.4327    1.8900    0.3150 C.3     1  UNL1        0.2425
     15 C           1.1941    0.4600   -0.1091 C.2     1  UNL1        0.2745
     16 O           1.8789   -0.3294   -0.7248 O.2     1  UNL1       -0.2701
     17 N           1.7762    2.7970   -0.7830 N.am    1  UNL1       -0.2764
     18 C           1.2561    2.5968   -2.0101 C.2     1  UNL1        0.2392
     19 O           0.5037    1.6659   -2.2054 O.2     1  UNL1       -0.2736
     20 C           1.6095    3.5298   -3.1397 C.3     1  UNL1        0.1367
     21 S           1.3202    5.2866   -2.7568 S.3     1  UNL1       -0.0936
     22 C           0.7085    5.4282   -4.4161 C.2     1  UNL1        0.0576
     23 C           0.6001    6.4640   -5.3543 C.2     1  UNL1        0.0785
     24 C           0.9492    7.8322   -4.9761 C.2     1  UNL1        0.2448
     25 O           0.7548    8.7476   -5.7551 O.2     1  UNL1       -0.2703
     26 N           1.4861    8.0804   -3.7651 N.am    1  UNL1       -0.3253
     27 C           0.1524    6.1850   -6.6685 C.2     1  UNL1        0.0782
     28 O          -0.2317    5.0666   -6.9559 O.co2   1  UNL1       -0.5444
     29 S           0.2927    3.7037   -4.3857 S.3     1  UNL1       -0.0936
     30 O           2.2806    2.0330    1.4563 O.3     1  UNL1       -0.3492
     31 C           3.6631    2.2002    1.1360 C.3     1  UNL1        0.0396
     32 S          -0.4790    2.0658    2.3972 S.3     1  UNL1       -0.1285
     33 C          -1.9624    1.0221    2.5476 C.3     1  UNL1        0.0196
     34 C          -0.9948   -1.9233    0.2450 C.2     1  UNL1        0.0860
     35 O          -0.1250   -2.2587   -0.5345 O.co2   1  UNL1       -0.5433
     36 H          -6.6733   -3.4533   -0.6101 H       1  UNL1        0.0474
     37 H          -8.0473   -3.0851    0.4599 H       1  UNL1        0.0474
     38 H          -6.8351   -1.8311    0.1045 H       1  UNL1        0.0474
     39 H          -2.1928   -2.3358    2.2566 H       1  UNL1        0.0427
     40 H          -3.0858   -1.1855    3.2801 H       1  UNL1        0.0427
     41 H           2.3780    3.5415   -0.6268 H       1  UNL1        0.1520
     42 H           2.5924    3.3280   -3.5655 H       1  UNL1        0.0629
     43 H           1.5744    7.3636   -3.1175 H       1  UNL1        0.1453
     44 H           1.7843    8.9758   -3.5411 H       1  UNL1        0.1453
     45 H           4.2395    2.3017    2.0555 H       1  UNL1        0.0524
     46 H           4.0152    1.3309    0.5806 H       1  UNL1        0.0524
     47 H           3.7893    3.0957    0.5274 H       1  UNL1        0.0524
     48 H          -2.8155    1.5556    2.1284 H       1  UNL1        0.0423
     49 H          -2.1510    0.8265    3.6032 H       1  UNL1        0.0423
     50 O           0.1517    7.1593   -7.6021 O.co2   1  UNL1       -0.5444
     51 O          -1.9956   -2.7747    0.5450 O.co2   1  UNL1       -0.5433
@<TRIPOS>UNITY_ATOM_ATTR
50 1
charge -1
51 1
charge -1
@<TRIPOS>BOND
     1     1     2    1
     2     1    36    1
     3     1    37    1
     4     1    38    1
     5     2     6   ar
     6     2     3   ar
     7     3     4   ar
     8     3     7    1
     9     4     5   ar
    10     5     6   ar
    11     7     8    1
    12     8     9    1
    13     8    39    1
    14     8    40    1
    15     9    33    1
    16     9    10    2
    17    10    11    1
    18    10    34    1
    19    11    15   am
    20    11    12    1
    21    12    13    1
    22    12    14    1
    23    12    32    1
    24    14    15    1
    25    14    17    1
    26    14    30    1
    27    15    16    2
    28    17    18   am
    29    17    41    1
    30    18    19    2
    31    18    20    1
    32    20    29    1
    33    20    21    1
    34    20    42    1
    35    21    22    1
    36    22    23    2
    37    22    29    1
    38    23    24    1
    39    23    27    1
    40    24    25    2
    41    24    26   am
    42    26    43    1
    43    26    44    1
    44    27    28   ar
    45    27    50   ar
    46    30    31    1
    47    31    45    1
    48    31    46    1
    49    31    47    1
    50    32    33    1
    51    33    48    1
    52    33    49    1
    53    34    35   ar
    54    34    51   ar
