@<TRIPOS>MOLECULE
ZINC03830820
 56 56 0 0 0
SMALL
GASTEIGER

@<TRIPOS>ATOM
      1 C          -5.9294    2.1364   -1.5171 C.3     1  UNL1       -0.0306
      2 C          -4.4786    1.6508   -1.5017 C.3     1  UNL1        0.0900
      3 O          -3.8888    1.9523   -0.2355 O.3     1  UNL1       -0.4618
      4 C          -2.6010    1.5868   -0.0563 C.2     1  UNL1        0.3322
      5 O          -1.9966    1.0270   -0.9529 O.2     1  UNL1       -0.2456
      6 C          -1.9568    1.8534    1.1682 C.2     1  UNL1        0.0254
      7 C          -0.6259    1.5895    1.3105 C.2     1  UNL1       -0.0437
      8 C           0.1829    1.1336    0.1235 C.3     1  UNL1       -0.0395
      9 C          -0.0105    1.7425    2.5613 C.2     1  UNL1       -0.0586
     10 C           1.3402    1.5805    2.6821 C.2     1  UNL1       -0.0613
     11 C           1.9707    1.8392    3.9083 C.2     1  UNL1       -0.0588
     12 C           3.3195    1.6775    4.0290 C.2     1  UNL1       -0.0504
     13 C           4.1326    1.2208    2.8452 C.3     1  UNL1       -0.0397
     14 C           3.9520    1.9370    5.2590 C.2     1  UNL1       -0.0583
     15 C           5.2932    1.7762    5.3791 C.2     1  UNL1       -0.0538
     16 C           5.9531    2.0469    6.6624 C.ar    1  UNL1       -0.0187
     17 C           5.7148    3.2525    7.3349 C.ar    1  UNL1       -0.0396
     18 C           6.3317    3.4985    8.5405 C.ar    1  UNL1       -0.0162
     19 C           7.1990    2.5581    9.0853 C.ar    1  UNL1        0.1235
     20 C           7.4436    1.3626    8.4196 C.ar    1  UNL1       -0.0053
     21 C           6.8277    1.1034    7.2159 C.ar    1  UNL1       -0.0367
     22 C           7.0943   -0.1929    6.4952 C.3     1  UNL1       -0.0388
     23 C           8.3853    0.3486    9.0163 C.3     1  UNL1       -0.0360
     24 O           7.8095    2.8086   10.2719 O.3     1  UNL1       -0.4948
     25 C           7.5139    4.0562   10.9029 C.3     1  UNL1        0.0788
     26 C           4.7804    4.2756    6.7424 C.3     1  UNL1       -0.0390
     27 H          -6.4887    1.6351   -0.7272 H       1  UNL1        0.0262
     28 H          -5.9538    3.2136   -1.3522 H       1  UNL1        0.0262
     29 H          -6.3792    1.9064   -2.4830 H       1  UNL1        0.0262
     30 H          -3.9192    2.1521   -2.2916 H       1  UNL1        0.0695
     31 H          -4.4542    0.5736   -1.6666 H       1  UNL1        0.0695
     32 H          -2.5167    2.2666    1.9942 H       1  UNL1        0.0691
     33 H           1.2339    1.0654    0.4045 H       1  UNL1        0.0278
     34 H           0.0701    1.8503   -0.6900 H       1  UNL1        0.0278
     35 H          -0.1702    0.1553   -0.2026 H       1  UNL1        0.0278
     36 H          -0.6047    1.9884    3.4290 H       1  UNL1        0.0620
     37 H           1.9229    1.2533    1.8338 H       1  UNL1        0.0618
     38 H           1.3880    2.1665    4.7567 H       1  UNL1        0.0620
     39 H           4.4710    2.0893    2.2801 H       1  UNL1        0.0278
     40 H           4.9966    0.6553    3.1942 H       1  UNL1        0.0278
     41 H           3.5183    0.5876    2.2050 H       1  UNL1        0.0278
     42 H           3.3693    2.2642    6.1074 H       1  UNL1        0.0620
     43 H           5.8759    1.4489    4.5307 H       1  UNL1        0.0624
     44 H           6.1456    4.4258    9.0619 H       1  UNL1        0.0657
     45 H           7.9449   -0.0678    5.8251 H       1  UNL1        0.0278
     46 H           7.3164   -0.9740    7.2223 H       1  UNL1        0.0278
     47 H           6.2145   -0.4747    5.9167 H       1  UNL1        0.0278
     48 H           9.3984    0.5419    8.6637 H       1  UNL1        0.0279
     49 H           8.3585    0.4235   10.1034 H       1  UNL1        0.0279
     50 H           8.0800   -0.6530    8.7135 H       1  UNL1        0.0279
     51 H           7.8060    4.8745   10.2447 H       1  UNL1        0.0660
     52 H           6.4446    4.1167   11.1052 H       1  UNL1        0.0660
     53 H           8.0657    4.1291   11.8401 H       1  UNL1        0.0660
     54 H           3.7663    4.0894    7.0961 H       1  UNL1        0.0278
     55 H           5.0940    5.2739    7.0476 H       1  UNL1        0.0278
     56 H           4.8049    4.2035    5.6551 H       1  UNL1        0.0278
@<TRIPOS>BOND
     1     1     2    1
     2     1    27    1
     3     1    28    1
     4     1    29    1
     5     2     3    1
     6     2    30    1
     7     2    31    1
     8     3     4    1
     9     4     5    2
    10     4     6    1
    11     6     7    2
    12     6    32    1
    13     7     8    1
    14     7     9    1
    15     8    33    1
    16     8    34    1
    17     8    35    1
    18     9    10    2
    19     9    36    1
    20    10    11    1
    21    10    37    1
    22    11    12    2
    23    11    38    1
    24    12    13    1
    25    12    14    1
    26    13    39    1
    27    13    40    1
    28    13    41    1
    29    14    15    2
    30    14    42    1
    31    15    16    1
    32    15    43    1
    33    16    21   ar
    34    16    17   ar
    35    17    18   ar
    36    17    26    1
    37    18    19   ar
    38    18    44    1
    39    19    20   ar
    40    19    24    1
    41    20    21   ar
    42    20    23    1
    43    21    22    1
    44    22    45    1
    45    22    46    1
    46    22    47    1
    47    23    48    1
    48    23    49    1
    49    23    50    1
    50    24    25    1
    51    25    51    1
    52    25    52    1
    53    25    53    1
    54    26    54    1
    55    26    55    1
    56    26    56    1
