@<TRIPOS>MOLECULE
ZINC03830970
 46 47 0 0 0
SMALL
GASTEIGER

@<TRIPOS>ATOM
      1 C           6.2844   -2.1706    1.1986 C.3     1  UNL1       -0.0185
      2 C           6.1141   -1.0522    0.1686 C.3     1  UNL1        0.0097
      3 H           6.9639   -0.3720    0.2269 H       1  UNL1        0.0882
      4 C           4.8241   -0.2827    0.4598 C.3     1  UNL1        0.1316
      5 O           3.7242   -1.1942    0.4983 O.3     1  UNL1       -0.4864
      6 C           2.4960   -0.6687    0.7478 C.ar    1  UNL1        0.1208
      7 C           1.3837   -1.4962    0.7993 C.ar    1  UNL1       -0.0199
      8 C           0.1362   -0.9596    1.0527 C.ar    1  UNL1       -0.0583
      9 C          -0.0044    0.4011    1.2544 C.ar    1  UNL1       -0.0615
     10 C           1.1026    1.2279    1.2035 C.ar    1  UNL1       -0.0583
     11 C           2.3523    0.6961    0.9509 C.ar    1  UNL1       -0.0199
     12 C           7.3879   -1.8252   -1.7400 C.3     1  UNL1        0.0056
     13 H           8.0878   -2.0550   -0.9367 H       1  UNL1        0.0877
     14 C           7.3624   -2.9821   -2.7408 C.3     1  UNL1       -0.0189
     15 C           7.8305   -0.5450   -2.4514 C.3     1  UNL1        0.1222
     16 H           7.7636    0.2960   -1.7612 H       1  UNL1        0.0701
     17 C           9.2545   -0.6977   -2.9205 C.ar    1  UNL1       -0.0136
     18 C           9.5204   -1.3113   -4.1307 C.ar    1  UNL1       -0.0525
     19 C          10.8245   -1.4475   -4.5656 C.ar    1  UNL1       -0.0198
     20 C          11.8685   -0.9785   -3.7815 C.ar    1  UNL1        0.1169
     21 C          11.5994   -0.3683   -2.5650 C.ar    1  UNL1       -0.0198
     22 C          10.2932   -0.2291   -2.1374 C.ar    1  UNL1       -0.0525
     23 O          13.1526   -1.1171   -4.2041 O.3     1  UNL1       -0.5068
     24 O           6.9815   -0.3070   -3.5759 O.3     1  UNL1       -0.3816
     25 H           6.2333   -1.7504    2.2031 H       1  UNL1        0.0285
     26 H           5.4897   -2.9057    1.0715 H       1  UNL1        0.0285
     27 H           7.2515   -2.6525    1.0552 H       1  UNL1        0.0285
     28 H           4.6568    0.4558   -0.3242 H       1  UNL1        0.0754
     29 H           4.9115    0.2221    1.4219 H       1  UNL1        0.0754
     30 H           1.4929   -2.5590    0.6412 H       1  UNL1        0.0654
     31 H          -0.7301   -1.6033    1.0929 H       1  UNL1        0.0619
     32 H          -0.9812    0.8193    1.4475 H       1  UNL1        0.0618
     33 H           0.9901    2.2904    1.3611 H       1  UNL1        0.0619
     34 H           3.2167    1.3424    0.9110 H       1  UNL1        0.0654
     35 H           6.9850   -3.8791   -2.2498 H       1  UNL1        0.0285
     36 H           6.7123   -2.7248   -3.5771 H       1  UNL1        0.0285
     37 H           8.3717   -3.1666   -3.1087 H       1  UNL1        0.0285
     38 H           8.7076   -1.6808   -4.7384 H       1  UNL1        0.0622
     39 H          11.0314   -1.9225   -5.5132 H       1  UNL1        0.0654
     40 H          12.4104   -0.0021   -1.9530 H       1  UNL1        0.0654
     41 H          10.0832    0.2459   -1.1905 H       1  UNL1        0.0622
     42 H          13.5727   -1.9413   -3.9224 H       1  UNL1        0.2921
     43 H           6.9909   -1.0164   -4.2330 H       1  UNL1        0.2105
     44 N           6.0348   -1.6362   -1.1837 N.4     1  UNL1        0.2354
     45 H           5.5026   -1.0053   -1.7944 H       1  UNL1        0.2021
     46 H           5.5595   -2.5449   -1.1328 H       1  UNL1        0.2021
@<TRIPOS>UNITY_ATOM_ATTR
44 1
charge 1
@<TRIPOS>BOND
     1     1     2    1
     2     1    25    1
     3     1    26    1
     4     1    27    1
     5     2     3    1
     6     2     4    1
     7     2    44    1
     8     4     5    1
     9     4    28    1
    10     4    29    1
    11     5     6    1
    12     6    11   ar
    13     6     7   ar
    14     7     8   ar
    15     7    30    1
    16     8     9   ar
    17     8    31    1
    18     9    10   ar
    19     9    32    1
    20    10    11   ar
    21    10    33    1
    22    11    34    1
    23    12    13    1
    24    12    14    1
    25    12    15    1
    26    12    44    1
    27    14    35    1
    28    14    36    1
    29    14    37    1
    30    15    16    1
    31    15    17    1
    32    15    24    1
    33    17    22   ar
    34    17    18   ar
    35    18    19   ar
    36    18    38    1
    37    19    20   ar
    38    19    39    1
    39    20    21   ar
    40    20    23    1
    41    21    22   ar
    42    21    40    1
    43    22    41    1
    44    23    42    1
    45    24    43    1
    46    44    45    1
    47    44    46    1
