@<TRIPOS>MOLECULE
ZINC00001210
 43 46 0 0 0
SMALL
GASTEIGER

@<TRIPOS>ATOM
      1 C           6.6143    4.3065    1.4514 C.3     1  UNL1       -0.0428
      2 C           5.6313    2.7422   -0.1136 C.3     1  UNL1        0.0049
      3 C           4.5334    2.5852   -1.1711 C.3     1  UNL1        0.1204
      4 N           3.2298    2.8090   -0.5278 N.pl3   1  UNL1       -0.2097
      5 C           3.0477    4.0319    0.2687 C.3     1  UNL1        0.1204
      6 C           4.2060    4.1291    1.2743 C.3     1  UNL1        0.0049
      7 C           2.2057    1.9009   -0.6722 C.2     1  UNL1        0.3234
      8 N           1.1502    2.0997    0.0349 N.2     1  UNL1       -0.0395
      9 C           0.0026    1.3650    0.0500 C.ar    1  UNL1        0.1988
     10 C          -1.2253    2.0258    0.1406 C.ar    1  UNL1        0.0093
     11 C          -2.3996    1.3008    0.2162 C.ar    1  UNL1        0.0452
     12 C          -2.3660   -0.0818    0.2034 C.ar    1  UNL1       -0.0414
     13 C          -1.1563   -0.7468    0.0971 C.ar    1  UNL1       -0.0349
     14 C           0.0264   -0.0316    0.0027 C.ar    1  UNL1        0.0829
     15 N           1.2350   -0.7266   -0.1646 N.pl3   1  UNL1       -0.3104
     16 C           1.9810   -0.4972   -1.3224 C.ar    1  UNL1        0.0464
     17 C           2.4254    0.7988   -1.6194 C.ar    1  UNL1        0.0867
     18 C           3.1234    1.0273   -2.8061 C.ar    1  UNL1       -0.0451
     19 C           3.3975   -0.0230   -3.6591 C.ar    1  UNL1       -0.0608
     20 C           2.9830   -1.3051   -3.3456 C.ar    1  UNL1       -0.0600
     21 C           2.2756   -1.5435   -2.1809 C.ar    1  UNL1       -0.0397
     22 CL         -3.9216    2.1284    0.3274 Cl      1  UNL1       -0.0834
     23 H           7.5407    4.3119    0.8772 H       1  UNL1        0.0778
     24 H           6.4788    5.2756    1.9316 H       1  UNL1        0.0778
     25 H           6.6629    3.5276    2.2124 H       1  UNL1        0.0778
     26 H           5.5434    1.9439    0.6233 H       1  UNL1        0.0852
     27 H           6.6086    2.6884   -0.5933 H       1  UNL1        0.0852
     28 H           4.5680    1.5787   -1.5881 H       1  UNL1        0.0780
     29 H           4.6812    3.3183   -1.9640 H       1  UNL1        0.0780
     30 H           3.0554    4.9015   -0.3885 H       1  UNL1        0.0780
     31 H           2.0995    3.9824    0.8041 H       1  UNL1        0.0780
     32 H           4.1379    3.3115    1.9919 H       1  UNL1        0.0852
     33 H           4.1498    5.0815    1.8015 H       1  UNL1        0.0852
     34 H          -1.2569    3.1053    0.1513 H       1  UNL1        0.0676
     35 H          -3.2854   -0.6439    0.2761 H       1  UNL1        0.0633
     36 H          -1.1346   -1.8265    0.0874 H       1  UNL1        0.0638
     37 H           1.5446   -1.3523    0.5088 H       1  UNL1        0.1523
     38 H           3.4488    2.0259   -3.0574 H       1  UNL1        0.0627
     39 H           3.9383    0.1573   -4.5764 H       1  UNL1        0.0618
     40 H           3.2130   -2.1230   -4.0123 H       1  UNL1        0.0618
     41 H           1.9528   -2.5458   -1.9410 H       1  UNL1        0.0636
     42 N           5.4835    4.0649    0.5315 N.4     1  UNL1        0.2384
     43 H           5.4832    4.7911   -0.1944 H       1  UNL1        0.2033
@<TRIPOS>UNITY_ATOM_ATTR
42 1
charge 1
@<TRIPOS>BOND
     1     1    23    1
     2     1    24    1
     3     1    25    1
     4     1    42    1
     5     2     3    1
     6     2    26    1
     7     2    27    1
     8     2    42    1
     9     3     4    1
    10     3    28    1
    11     3    29    1
    12     4     5    1
    13     4     7    1
    14     5     6    1
    15     5    30    1
    16     5    31    1
    17     6    32    1
    18     6    33    1
    19     6    42    1
    20     7    17    1
    21     7     8    2
    22     8     9    1
    23     9    14   ar
    24     9    10   ar
    25    10    11   ar
    26    10    34    1
    27    11    12   ar
    28    11    22    1
    29    12    13   ar
    30    12    35    1
    31    13    14   ar
    32    13    36    1
    33    14    15    1
    34    15    16    1
    35    15    37    1
    36    16    21   ar
    37    16    17   ar
    38    17    18   ar
    39    18    19   ar
    40    18    38    1
    41    19    20   ar
    42    19    39    1
    43    20    21   ar
    44    20    40    1
    45    21    41    1
    46    42    43    1
