@<TRIPOS>MOLECULE
ZINC14593246
 81 84 0 0 0
SMALL
GASTEIGER

@<TRIPOS>ATOM
      1 C          -4.4633    6.4251    8.0089 C.3     1  UNL1       -0.0466
      2 C          -3.2926    6.6389    7.0843 C.2     1  UNL1       -0.0876
      3 C          -2.3133    5.7693    7.0557 C.2     1  UNL1       -0.0711
      4 C          -2.3573    4.5551    7.9473 C.3     1  UNL1       -0.0313
      5 C          -2.9425    3.3735    7.1713 C.3     1  UNL1       -0.0465
      6 C          -2.9873    2.1408    8.0765 C.3     1  UNL1       -0.0402
      7 H          -1.9765    1.8884    8.3968 H       1  UNL1        0.0301
      8 C          -3.8513    2.4400    9.3032 C.3     1  UNL1       -0.0621
      9 C          -3.5869    0.9633    7.3053 C.3     1  UNL1       -0.0325
     10 H          -3.6761    0.0923    7.9546 H       1  UNL1        0.0309
     11 C          -4.9737    1.3483    6.7265 C.3     1  UNL1       -0.0489
     12 C          -4.8231    1.3229    5.1790 C.3     1  UNL1       -0.0457
     13 C          -3.3220    1.5489    4.9814 C.3     1  UNL1       -0.0140
     14 H          -3.0617    2.5958    5.1380 H       1  UNL1        0.0351
     15 C          -2.7310    0.6353    6.0925 C.3     1  UNL1       -0.0225
     16 C          -1.2463    0.9037    6.1642 C.3     1  UNL1       -0.0463
     17 C          -0.6171    0.3687    4.8661 C.3     1  UNL1       -0.0455
     18 C          -1.2299    1.0226    3.6302 C.3     1  UNL1       -0.0139
     19 H          -0.8921    2.0590    3.6265 H       1  UNL1        0.0351
     20 C          -2.7346    1.0367    3.6949 C.2     1  UNL1       -0.0662
     21 C          -3.5081    0.6479    2.7302 C.2     1  UNL1       -0.0839
     22 C          -2.9867    0.1144    1.4277 C.3     1  UNL1       -0.0308
     23 C          -1.5887    0.6884    1.1680 C.3     1  UNL1       -0.0267
     24 H          -1.6405    1.7683    1.0294 H       1  UNL1        0.0313
     25 C          -0.6984    0.3649    2.3668 C.3     1  UNL1       -0.0220
     26 C           0.7272    0.8572    2.1032 C.3     1  UNL1       -0.0445
     27 C           1.2841    0.1841    0.8484 C.3     1  UNL1       -0.0261
     28 C           0.3990    0.5419   -0.3482 C.3     1  UNL1        0.0581
     29 H           0.7974    0.0745   -1.2486 H       1  UNL1        0.0596
     30 C          -1.0201    0.0328   -0.0934 C.3     1  UNL1       -0.0142
     31 H          -0.9985   -1.0489    0.0388 H       1  UNL1        0.0326
     32 C          -1.9077    0.3812   -1.2900 C.3     1  UNL1       -0.0598
     33 O           0.3742    1.9608   -0.5164 O.3     1  UNL1       -0.3915
     34 C          -0.6792   -1.1528    2.5593 C.3     1  UNL1       -0.0587
     35 C          -2.9470   -0.8289    5.7048 C.3     1  UNL1       -0.0588
     36 C          -1.1426    5.9830    6.1311 C.3     1  UNL1       -0.0256
     37 C           0.1447    6.0806    6.9523 C.3     1  UNL1       -0.0590
     38 C          -1.0392    4.8064    5.1586 C.3     1  UNL1       -0.0590
     39 H          -4.9541    5.4837    7.7619 H       1  UNL1        0.0272
     40 H          -4.1107    6.3915    9.0398 H       1  UNL1        0.0272
     41 H          -5.1717    7.2454    7.8938 H       1  UNL1        0.0272
     42 H          -3.2610    7.5090    6.4454 H       1  UNL1        0.0569
     43 H          -2.9819    4.7646    8.8157 H       1  UNL1        0.0310
     44 H          -1.3478    4.3093    8.2766 H       1  UNL1        0.0310
     45 H          -2.3180    3.1641    6.3028 H       1  UNL1        0.0271
     46 H          -3.9521    3.6193    6.8420 H       1  UNL1        0.0271
     47 H          -3.9736    1.5309    9.8920 H       1  UNL1        0.0233
     48 H          -3.3668    3.2041    9.9112 H       1  UNL1        0.0233
     49 H          -4.8288    2.7983    8.9805 H       1  UNL1        0.0233
     50 H          -5.2538    2.3478    7.0590 H       1  UNL1        0.0268
     51 H          -5.7250    0.6241    7.0414 H       1  UNL1        0.0268
     52 H          -5.3984    2.1279    4.7217 H       1  UNL1        0.0271
     53 H          -5.1247    0.3566    4.7746 H       1  UNL1        0.0271
     54 H          -1.0674    1.9757    6.2480 H       1  UNL1        0.0271
     55 H          -0.8178    0.3877    7.0234 H       1  UNL1        0.0271
     56 H           0.4540    0.5705    4.8809 H       1  UNL1        0.0271
     57 H          -0.7749   -0.7084    4.8122 H       1  UNL1        0.0271
     58 H          -4.5771    0.7103    2.8703 H       1  UNL1        0.0572
     59 H          -3.6567    0.4086    0.6198 H       1  UNL1        0.0310
     60 H          -2.9303   -0.9731    1.4759 H       1  UNL1        0.0310
     61 H           1.3590    0.6116    2.9568 H       1  UNL1        0.0272
     62 H           0.7157    1.9377    1.9599 H       1  UNL1        0.0272
     63 H           1.2898   -0.8970    0.9869 H       1  UNL1        0.0290
     64 H           2.3003    0.5345    0.6675 H       1  UNL1        0.0290
     65 H          -1.5065   -0.0874   -2.1886 H       1  UNL1        0.0233
     66 H          -2.9190    0.0163   -1.1105 H       1  UNL1        0.0233
     67 H          -1.9300    1.4628   -1.4231 H       1  UNL1        0.0233
     68 H           1.2426    2.3525   -0.6819 H       1  UNL1        0.2098
     69 H          -0.0429   -1.4034    3.4081 H       1  UNL1        0.0235
     70 H          -1.6924   -1.5080    2.7473 H       1  UNL1        0.0235
     71 H          -0.2886   -1.6282    1.6595 H       1  UNL1        0.0235
     72 H          -2.4243   -1.0385    4.7716 H       1  UNL1        0.0235
     73 H          -2.5577   -1.4744    6.4922 H       1  UNL1        0.0235
     74 H          -4.0127   -1.0169    5.5746 H       1  UNL1        0.0235
     75 H          -1.2865    6.9065    5.5701 H       1  UNL1        0.0340
     76 H           0.2886    5.1572    7.5132 H       1  UNL1        0.0235
     77 H           0.9914    6.2352    6.2835 H       1  UNL1        0.0235
     78 H           0.0711    6.9188    7.6451 H       1  UNL1        0.0235
     79 H          -1.9563    4.7369    4.5736 H       1  UNL1        0.0235
     80 H          -0.1925    4.9610    4.4899 H       1  UNL1        0.0235
     81 H          -0.8953    3.8830    5.7196 H       1  UNL1        0.0235
@<TRIPOS>BOND
     1     1     2    1
     2     1    39    1
     3     1    40    1
     4     1    41    1
     5     2     3    2
     6     2    42    1
     7     3     4    1
     8     3    36    1
     9     4     5    1
    10     4    43    1
    11     4    44    1
    12     5     6    1
    13     5    45    1
    14     5    46    1
    15     6     7    1
    16     6     8    1
    17     6     9    1
    18     8    47    1
    19     8    48    1
    20     8    49    1
    21     9    10    1
    22     9    15    1
    23     9    11    1
    24    11    12    1
    25    11    50    1
    26    11    51    1
    27    12    13    1
    28    12    52    1
    29    12    53    1
    30    13    14    1
    31    13    20    1
    32    13    15    1
    33    15    16    1
    34    15    35    1
    35    16    17    1
    36    16    54    1
    37    16    55    1
    38    17    18    1
    39    17    56    1
    40    17    57    1
    41    18    19    1
    42    18    25    1
    43    18    20    1
    44    20    21    2
    45    21    22    1
    46    21    58    1
    47    22    23    1
    48    22    59    1
    49    22    60    1
    50    23    24    1
    51    23    30    1
    52    23    25    1
    53    25    26    1
    54    25    34    1
    55    26    27    1
    56    26    61    1
    57    26    62    1
    58    27    28    1
    59    27    63    1
    60    27    64    1
    61    28    29    1
    62    28    30    1
    63    28    33    1
    64    30    31    1
    65    30    32    1
    66    32    65    1
    67    32    66    1
    68    32    67    1
    69    33    68    1
    70    34    69    1
    71    34    70    1
    72    34    71    1
    73    35    72    1
    74    35    73    1
    75    35    74    1
    76    36    37    1
    77    36    38    1
    78    36    75    1
    79    37    76    1
    80    37    77    1
    81    37    78    1
    82    38    79    1
    83    38    80    1
    84    38    81    1
