@<TRIPOS>MOLECULE
ZINC03831211
 52 55 0 0 0
SMALL
GASTEIGER

@<TRIPOS>ATOM
      1 C           0.7905    8.9681   -3.6078 C.3     1  UNL1       -0.0627
      2 C           1.2121    7.6269   -3.0042 C.3     1  UNL1       -0.0263
      3 C           0.4044    6.5041   -3.6463 C.3     1  UNL1        0.0715
      4 C          -1.1067    6.7100   -3.3576 C.3     1  UNL1       -0.0232
      5 C          -1.4780    5.7175   -2.2241 C.3     1  UNL1       -0.0467
      6 C          -0.1181    5.2137   -1.7138 C.3     1  UNL1       -0.0298
      7 H           0.3100    5.9973   -1.0602 H       1  UNL1        0.0310
      8 C           0.7069    5.1353   -3.0136 C.3     1  UNL1       -0.0002
      9 C           2.1562    4.8143   -2.7567 C.3     1  UNL1       -0.0445
     10 C           2.3089    4.1042   -1.3956 C.3     1  UNL1       -0.0488
     11 C           1.1512    3.1327   -1.2325 C.3     1  UNL1       -0.0314
     12 H           1.0307    2.5562   -2.1497 H       1  UNL1        0.0309
     13 C          -0.1322    3.9284   -0.9478 C.3     1  UNL1       -0.0340
     14 H          -0.1100    4.1912    0.1307 H       1  UNL1        0.0307
     15 C          -1.3300    3.0157   -1.1471 C.3     1  UNL1       -0.0460
     16 C          -1.2650    1.9229   -0.0666 C.3     1  UNL1       -0.0308
     17 C           0.1014    1.2613   -0.0869 C.2     1  UNL1       -0.0629
     18 C           0.1395   -0.0701   -0.1164 C.2     1  UNL1       -0.0197
     19 C           1.4332   -0.7584   -0.1900 C.2     1  UNL1        0.1561
     20 O           1.5453   -1.8637   -0.6739 O.2     1  UNL1       -0.2927
     21 C           2.6201   -0.0020    0.3750 C.3     1  UNL1        0.0104
     22 C           2.6345    1.3770   -0.2797 C.3     1  UNL1       -0.0392
     23 C           1.3339    2.1295   -0.0890 C.3     1  UNL1       -0.0160
     24 H           1.3760    2.6776    0.8514 H       1  UNL1        0.0349
     25 C           0.1176    4.0821   -3.9696 C.3     1  UNL1       -0.0567
     26 O           0.6355    6.4531   -5.0535 O.3     1  UNL1       -0.3880
     27 H           0.8788    8.9218   -4.6932 H       1  UNL1        0.0231
     28 H          -0.2437    9.1798   -3.3361 H       1  UNL1        0.0231
     29 H           1.4360    9.7582   -3.2241 H       1  UNL1        0.0231
     30 H           1.0283    7.6382   -1.9298 H       1  UNL1        0.0290
     31 H           2.2736    7.4627   -3.1895 H       1  UNL1        0.0290
     32 H          -1.6879    6.4935   -4.2521 H       1  UNL1        0.0293
     33 H          -1.2843    7.7338   -3.0320 H       1  UNL1        0.0293
     34 H          -2.0878    4.9018   -2.6044 H       1  UNL1        0.0269
     35 H          -2.0103    6.2406   -1.4251 H       1  UNL1        0.0269
     36 H           2.5164    4.1333   -3.5432 H       1  UNL1        0.0272
     37 H           2.7891    5.6970   -2.7746 H       1  UNL1        0.0272
     38 H           2.2937    4.8415   -0.5929 H       1  UNL1        0.0268
     39 H           3.2560    3.5634   -1.3725 H       1  UNL1        0.0268
     40 H          -2.2554    3.5802   -1.0336 H       1  UNL1        0.0271
     41 H          -1.2972    2.5502   -2.1304 H       1  UNL1        0.0271
     42 H          -2.0341    1.1769   -0.2626 H       1  UNL1        0.0310
     43 H          -1.4341    2.3744    0.9108 H       1  UNL1        0.0310
     44 H          -0.7753   -0.6397   -0.1001 H       1  UNL1        0.0652
     45 H           2.5230    0.0776    1.3671 H       1  UNL1        0.0345
     46 H           3.5420   -0.5343    0.1401 H       1  UNL1        0.0345
     47 H           3.4500    1.9622    0.1503 H       1  UNL1        0.0275
     48 H           2.8211    1.2575   -1.3491 H       1  UNL1        0.0275
     49 H          -0.9085    4.3519   -4.2194 H       1  UNL1        0.0236
     50 H           0.7152    4.0433   -4.8803 H       1  UNL1        0.0236
     51 H           0.1289    3.1054   -3.4857 H       1  UNL1        0.0236
     52 H           0.3890    7.2622   -5.5222 H       1  UNL1        0.2102
@<TRIPOS>BOND
     1     1     2    1
     2     1    27    1
     3     1    28    1
     4     1    29    1
     5     2     3    1
     6     2    30    1
     7     2    31    1
     8     3     8    1
     9     3     4    1
    10     3    26    1
    11     4     5    1
    12     4    32    1
    13     4    33    1
    14     5     6    1
    15     5    34    1
    16     5    35    1
    17     6     7    1
    18     6    13    1
    19     6     8    1
    20     8     9    1
    21     8    25    1
    22     9    10    1
    23     9    36    1
    24     9    37    1
    25    10    11    1
    26    10    38    1
    27    10    39    1
    28    11    12    1
    29    11    23    1
    30    11    13    1
    31    13    14    1
    32    13    15    1
    33    15    16    1
    34    15    40    1
    35    15    41    1
    36    16    17    1
    37    16    42    1
    38    16    43    1
    39    17    23    1
    40    17    18    2
    41    18    19    1
    42    18    44    1
    43    19    20    2
    44    19    21    1
    45    21    22    1
    46    21    45    1
    47    21    46    1
    48    22    23    1
    49    22    47    1
    50    22    48    1
    51    23    24    1
    52    25    49    1
    53    25    50    1
    54    25    51    1
    55    26    52    1
