@<TRIPOS>MOLECULE
ZINC03830222
 27 29 0 0 0
SMALL
GASTEIGER

@<TRIPOS>ATOM
      1 C          -0.6111    7.1678    3.4105 C.ar    1  UNL1       -0.0015
      2 C          -0.0794    5.9338    3.3180 C.ar    1  UNL1        0.0154
      3 N           0.7512    5.6332    2.2723 N.ar    1  UNL1       -0.2723
      4 C           1.0508    6.5472    1.3104 C.ar    1  UNL1        0.3026
      5 N           0.5521    7.7683    1.3668 N.ar    1  UNL1       -0.1778
      6 C          -0.2675    8.1438    2.3673 C.ar    1  UNL1        0.1520
      7 N          -0.7548    9.3695    2.4099 N.2     1  UNL1       -0.2819
      8 O           1.8726    6.0260    0.3650 O.3     1  UNL1       -0.4529
      9 C           2.5172    4.8682    0.9187 C.3     1  UNL1        0.1763
     10 H           3.4967    5.0684    1.3529 H       1  UNL1        0.0807
     11 C           1.4632    4.3778    1.9506 C.3     1  UNL1        0.1789
     12 H           1.9132    3.9114    2.8270 H       1  UNL1        0.0878
     13 O           0.5738    3.5084    1.2454 O.3     1  UNL1       -0.3444
     14 C           1.1449    3.0852    0.0077 C.3     1  UNL1        0.1137
     15 H           0.5075    3.4007   -0.8183 H       1  UNL1        0.0647
     16 C           2.5312    3.7362   -0.1282 C.3     1  UNL1        0.1246
     17 H           2.6660    4.1420   -1.1308 H       1  UNL1        0.0659
     18 O           3.5600    2.7905    0.1705 O.3     1  UNL1       -0.3853
     19 C           1.2864    1.5618   -0.0018 C.3     1  UNL1        0.0730
     20 O          -0.0110    0.9628    0.0073 O.3     1  UNL1       -0.3924
     21 H          -1.2693    7.4314    4.2252 H       1  UNL1        0.0669
     22 H          -0.3065    5.1866    4.0641 H       1  UNL1        0.0812
     23 H          -0.5231   10.0079    1.7173 H       1  UNL1        0.1883
     24 H           3.5754    2.0260   -0.4214 H       1  UNL1        0.2101
     25 H           1.8401    1.2428    0.8812 H       1  UNL1        0.0584
     26 H           1.8231    1.2523   -0.8987 H       1  UNL1        0.0584
     27 H           0.0021   -0.0041    0.0020 H       1  UNL1        0.2095
@<TRIPOS>BOND
     1     1     6   ar
     2     1     2   ar
     3     1    21    1
     4     2     3   ar
     5     2    22    1
     6     3    11    1
     7     3     4   ar
     8     4     5   ar
     9     4     8    1
    10     5     6   ar
    11     6     7    2
    12     7    23    1
    13     8     9    1
    14     9    10    1
    15     9    16    1
    16     9    11    1
    17    11    12    1
    18    11    13    1
    19    13    14    1
    20    14    15    1
    21    14    16    1
    22    14    19    1
    23    16    17    1
    24    16    18    1
    25    18    24    1
    26    19    20    1
    27    19    25    1
    28    19    26    1
    29    20    27    1
