@<TRIPOS>MOLECULE
ZINC00968285
 32 32 0 0 0
SMALL
GASTEIGER

@<TRIPOS>ATOM
      1 C          -0.1416    1.5415   -0.1853 C.3     1  UNL1       -0.0213
      2 C          -0.8838    1.8180    1.1237 C.3     1  UNL1       -0.0190
      3 H          -1.1856    2.8649    1.1561 H       1  UNL1        0.0852
      4 C           0.0385    1.5163    2.3065 C.3     1  UNL1        0.0153
      5 C           1.2211    2.4498    2.2722 C.ar    1  UNL1       -0.0421
      6 C           2.4095    2.0390    1.6979 C.ar    1  UNL1       -0.0584
      7 C           3.4928    2.8970    1.6621 C.ar    1  UNL1       -0.0615
      8 C           3.3909    4.1620    2.2101 C.ar    1  UNL1       -0.0617
      9 C           2.2041    4.5709    2.7891 C.ar    1  UNL1       -0.0615
     10 C           1.1192    3.7148    2.8202 C.ar    1  UNL1       -0.0584
     11 C          -2.7290    1.0874    2.5108 C.3     1  UNL1       -0.0419
     12 C          -3.0141    1.2672    0.1131 C.3     1  UNL1        0.0307
     13 C          -4.0713    0.2436    0.0760 C.1     1  UNL1       -0.0562
     14 C          -4.9145   -0.5728    0.0464 C.1     1  UNL1       -0.1140
     15 H           0.1601    0.4946   -0.2177 H       1  UNL1        0.0284
     16 H           0.7425    2.1764   -0.2428 H       1  UNL1        0.0284
     17 H          -0.7988    1.7564   -1.0280 H       1  UNL1        0.0284
     18 H          -0.5084    1.6568    3.2388 H       1  UNL1        0.0368
     19 H           0.3872    0.4856    2.2416 H       1  UNL1        0.0368
     20 H           2.4905    1.0490    1.2738 H       1  UNL1        0.0620
     21 H           4.4201    2.5774    1.2101 H       1  UNL1        0.0618
     22 H           4.2386    4.8307    2.1861 H       1  UNL1        0.0618
     23 H           2.1246    5.5591    3.2175 H       1  UNL1        0.0618
     24 H           0.1921    4.0341    3.2729 H       1  UNL1        0.0620
     25 H          -2.9191    2.1395    2.7231 H       1  UNL1        0.0778
     26 H          -3.6731    0.5428    2.4992 H       1  UNL1        0.0778
     27 H          -2.0798    0.6727    3.2820 H       1  UNL1        0.0778
     28 H          -3.4620    2.2462    0.2833 H       1  UNL1        0.0959
     29 H          -2.4798    1.2722   -0.8369 H       1  UNL1        0.0959
     30 H          -5.6686   -1.3029    0.0199 H       1  UNL1        0.1230
     31 N          -2.0669    0.9351    1.1981 N.4     1  UNL1        0.2441
     32 H          -1.7631   -0.0396    1.0889 H       1  UNL1        0.2043
@<TRIPOS>UNITY_ATOM_ATTR
31 1
charge 1
@<TRIPOS>BOND
     1     1     2    1
     2     1    15    1
     3     1    16    1
     4     1    17    1
     5     2     3    1
     6     2     4    1
     7     2    31    1
     8     4     5    1
     9     4    18    1
    10     4    19    1
    11     5    10   ar
    12     5     6   ar
    13     6     7   ar
    14     6    20    1
    15     7     8   ar
    16     7    21    1
    17     8     9   ar
    18     8    22    1
    19     9    10   ar
    20     9    23    1
    21    10    24    1
    22    11    25    1
    23    11    26    1
    24    11    27    1
    25    11    31    1
    26    12    13    1
    27    12    28    1
    28    12    29    1
    29    12    31    1
    30    13    14    3
    31    14    30    1
    32    31    32    1
