@<TRIPOS>MOLECULE
ZINC08101121
 75 77 0 0 0
SMALL
GASTEIGER

@<TRIPOS>ATOM
      1 C           5.1403    2.1934   -4.6276 C.3     1  UNL1       -0.0285
      2 C           4.0136    2.7985   -3.7878 C.3     1  UNL1        0.1311
      3 C           2.9880    1.7133   -3.4497 C.3     1  UNL1        0.0846
      4 O           1.9671    2.2673   -2.6173 O.3     1  UNL1       -0.3455
      5 C           2.4428    2.7709   -1.3674 C.3     1  UNL1        0.1911
      6 H           1.6039    3.1550   -0.7871 H       1  UNL1        0.0939
      7 C           3.4464    3.8986   -1.6218 C.3     1  UNL1        0.1509
      8 H           3.8435    4.2542   -0.6711 H       1  UNL1        0.0703
      9 C           4.5921    3.3661   -2.4880 C.3     1  UNL1        0.0397
     10 H           5.1207    2.5792   -1.9500 H       1  UNL1        0.0907
     11 C           6.5712    4.5651   -1.7751 C.3     1  UNL1       -0.0444
     12 O           2.7945    4.9739   -2.3006 O.3     1  UNL1       -0.3812
     13 O           3.0821    1.7187   -0.6419 O.3     1  UNL1       -0.3371
     14 C           2.1832    0.7232   -0.1488 C.3     1  UNL1        0.1325
     15 H           2.7122   -0.2240   -0.0440 H       1  UNL1        0.0681
     16 C           1.0222    0.5531   -1.1307 C.3     1  UNL1        0.0104
     17 H           0.3366   -0.2063   -0.7546 H       1  UNL1        0.0878
     18 C           0.2797    1.8827   -1.2778 C.3     1  UNL1        0.0381
     19 C          -0.2642    2.3166    0.0848 C.3     1  UNL1        0.0104
     20 H          -0.9498    1.5573    0.4609 H       1  UNL1        0.0878
     21 C           0.8968    2.4868    1.0667 C.3     1  UNL1        0.1326
     22 H           0.5094    2.7959    2.0374 H       1  UNL1        0.0681
     23 C           1.6394    1.1571    1.2138 C.3     1  UNL1        0.1181
     24 H           0.9537    0.3978    1.5899 H       1  UNL1        0.0649
     25 O           2.7237    1.3160    2.1308 O.3     1  UNL1       -0.3862
     26 O           1.7957    3.4823    0.5736 O.3     1  UNL1       -0.3348
     27 C           2.8331    3.8344    1.4911 C.3     1  UNL1        0.2034
     28 H           2.7249    3.2490    2.4042 H       1  UNL1        0.0969
     29 C           2.7345    5.3251    1.8256 C.3     1  UNL1        0.0279
     30 H           1.7827    5.5258    2.3174 H       1  UNL1        0.0900
     31 C           3.8853    5.7075    2.7615 C.3     1  UNL1       -0.0025
     32 C           5.2150    5.3486    2.0912 C.3     1  UNL1       -0.0162
     33 C           5.2176    3.8570    1.7466 C.3     1  UNL1        0.1015
     34 H           5.1408    3.2719    2.6631 H       1  UNL1        0.0651
     35 O           4.1052    3.5633    0.8991 O.3     1  UNL1       -0.3378
     36 C           6.5181    3.5029    1.0226 C.3     1  UNL1       -0.0084
     37 O           3.3767    3.8447   -4.5240 O.3     1  UNL1       -0.3809
     38 H           5.5663    1.3386   -4.1022 H       1  UNL1        0.0260
     39 H           4.7424    1.8676   -5.5887 H       1  UNL1        0.0260
     40 H           5.9149    2.9428   -4.7903 H       1  UNL1        0.0260
     41 H           2.5418    1.3356   -4.3697 H       1  UNL1        0.0591
     42 H           3.4828    0.8968   -2.9238 H       1  UNL1        0.0591
     43 H           6.1139    4.7601   -0.8051 H       1  UNL1        0.0777
     44 H           7.1315    3.6312   -1.7315 H       1  UNL1        0.0777
     45 H           7.2462    5.3822   -2.0295 H       1  UNL1        0.0777
     46 H           2.0540    5.3568   -1.8108 H       1  UNL1        0.2103
     47 H          -0.5474    1.7615   -1.9773 H       1  UNL1        0.0377
     48 H           0.9653    2.6420   -1.6539 H       1  UNL1        0.0377
     49 H           3.2399    0.5108    2.2729 H       1  UNL1        0.2100
     50 H           3.7900    5.1598    3.6990 H       1  UNL1        0.0322
     51 H           3.8546    6.7788    2.9603 H       1  UNL1        0.0322
     52 H           6.0371    5.5664    2.7730 H       1  UNL1        0.0294
     53 H           5.3326    5.9334    1.1789 H       1  UNL1        0.0294
     54 H           6.6193    4.1240    0.1327 H       1  UNL1        0.0839
     55 H           7.3638    3.6797    1.6872 H       1  UNL1        0.0839
     56 H           5.6794    1.8837    0.0669 H       1  UNL1        0.1995
     57 H           7.3395    1.8285    0.1508 H       1  UNL1        0.1995
     58 H           2.6520    7.0903    0.7693 H       1  UNL1        0.1999
     59 H           3.7196    5.9807    0.1409 H       1  UNL1        0.1999
     60 H          -1.7491    3.5070   -0.7004 H       1  UNL1        0.1998
     61 H          -1.2904    3.9336    0.8403 H       1  UNL1        0.1998
     62 H           0.7935   -0.1111   -3.0659 H       1  UNL1        0.1998
     63 H           2.1288    0.8544   -2.8404 H       1  UNL1        0.1998
     64 H           2.9216    3.5432   -5.3222 H       1  UNL1        0.2105
     65 N           5.5218    4.4660   -2.8071 N.4     1  UNL1        0.2310
     66 H           5.0005    5.3496   -2.8460 H       1  UNL1        0.2015
     67 H           5.9591    4.2862   -3.7185 H       1  UNL1        0.2015
     68 N           6.4893    2.0764    0.6540 N.4     1  UNL1        0.2204
     69 H           6.4273    1.5086    1.5072 H       1  UNL1        0.1995
     70 N           2.8064    6.1022    0.5757 N.4     1  UNL1        0.2243
     71 H           2.0809    5.7700   -0.0704 H       1  UNL1        0.1999
     72 N          -0.9585    3.6076   -0.0659 N.4     1  UNL1        0.2228
     73 H          -0.3051    4.2992   -0.4520 H       1  UNL1        0.1998
     74 N           1.5579    0.1161   -2.4320 N.4     1  UNL1        0.2228
     75 H           2.1387   -0.7193   -2.2946 H       1  UNL1        0.1998
@<TRIPOS>UNITY_ATOM_ATTR
65 1
charge 1
68 1
charge 1
70 1
charge 1
72 1
charge 1
74 1
charge 1
@<TRIPOS>BOND
     1     1     2    1
     2     1    38    1
     3     1    39    1
     4     1    40    1
     5     2     9    1
     6     2     3    1
     7     2    37    1
     8     3     4    1
     9     3    41    1
    10     3    42    1
    11     4     5    1
    12     5     6    1
    13     5     7    1
    14     5    13    1
    15     7     8    1
    16     7     9    1
    17     7    12    1
    18     9    10    1
    19     9    65    1
    20    11    43    1
    21    11    44    1
    22    11    45    1
    23    11    65    1
    24    12    46    1
    25    13    14    1
    26    14    15    1
    27    14    23    1
    28    14    16    1
    29    16    17    1
    30    16    18    1
    31    16    74    1
    32    18    19    1
    33    18    47    1
    34    18    48    1
    35    19    20    1
    36    19    21    1
    37    19    72    1
    38    21    22    1
    39    21    23    1
    40    21    26    1
    41    23    24    1
    42    23    25    1
    43    25    49    1
    44    26    27    1
    45    27    28    1
    46    27    35    1
    47    27    29    1
    48    29    30    1
    49    29    31    1
    50    29    70    1
    51    31    32    1
    52    31    50    1
    53    31    51    1
    54    32    33    1
    55    32    52    1
    56    32    53    1
    57    33    34    1
    58    33    35    1
    59    33    36    1
    60    36    54    1
    61    36    55    1
    62    36    68    1
    63    37    64    1
    64    56    68    1
    65    57    68    1
    66    58    70    1
    67    59    70    1
    68    60    72    1
    69    61    72    1
    70    62    74    1
    71    63    74    1
    72    65    66    1
    73    65    67    1
    74    68    69    1
    75    70    71    1
    76    72    73    1
    77    74    75    1
