@<TRIPOS>MOLECULE
ZINC00120286
 30 32 0 0 0
SMALL
GASTEIGER

@<TRIPOS>ATOM
      1 C          -3.8656   -5.2590   -0.2884 C.ar    1  UNL1       -0.0617
      2 C          -4.8404   -4.4896   -0.8981 C.ar    1  UNL1       -0.0611
      3 C          -4.7819   -3.1129   -0.8259 C.ar    1  UNL1       -0.0525
      4 C          -3.7373   -2.4974   -0.1371 C.ar    1  UNL1        0.0037
      5 C          -2.7545   -3.2781    0.4705 C.ar    1  UNL1       -0.0525
      6 C          -2.8271   -4.6541    0.3968 C.ar    1  UNL1       -0.0611
      7 C          -3.6684   -1.0195   -0.0563 C.ar    1  UNL1        0.1113
      8 C          -4.8390   -0.2741    0.2208 C.ar    1  UNL1        0.1448
      9 N          -4.7896    1.0438    0.2961 N.ar    1  UNL1       -0.2091
     10 C          -3.6262    1.6744    0.1082 C.ar    1  UNL1        0.1868
     11 C          -2.4562    0.9246   -0.1693 C.ar    1  UNL1        0.1482
     12 N          -2.5145   -0.4039   -0.2430 N.ar    1  UNL1       -0.2367
     13 C          -1.2392    1.6274   -0.3623 C.ar    1  UNL1        0.1491
     14 N          -1.2531    2.9491   -0.2691 N.ar    1  UNL1       -0.1978
     15 C          -2.3758    3.6129   -0.0116 C.ar    1  UNL1        0.2163
     16 N          -3.5348    3.0088    0.1764 N.ar    1  UNL1       -0.1932
     17 N          -2.3267    4.9918    0.0682 N.pl3   1  UNL1       -0.3274
     18 N          -0.0691    0.9513   -0.6346 N.pl3   1  UNL1       -0.3413
     19 N          -6.0409   -0.9289    0.4144 N.pl3   1  UNL1       -0.3414
     20 H          -3.9158   -6.3363   -0.3473 H       1  UNL1        0.0618
     21 H          -5.6489   -4.9675   -1.4313 H       1  UNL1        0.0618
     22 H          -5.5438   -2.5133   -1.3017 H       1  UNL1        0.0624
     23 H          -1.9409   -2.8069    1.0019 H       1  UNL1        0.0624
     24 H          -2.0692   -5.2600    0.8710 H       1  UNL1        0.0618
     25 H          -3.1333    5.4955    0.2590 H       1  UNL1        0.1452
     26 H          -1.4856    5.4557   -0.0666 H       1  UNL1        0.1452
     27 H          -0.0715   -0.0168   -0.6962 H       1  UNL1        0.1438
     28 H           0.7557    1.4438   -0.7685 H       1  UNL1        0.1438
     29 H          -6.0603   -1.8961    0.4858 H       1  UNL1        0.1438
     30 H          -6.8649   -0.4212    0.4787 H       1  UNL1        0.1438
@<TRIPOS>BOND
     1     1     6   ar
     2     1     2   ar
     3     1    20    1
     4     2     3   ar
     5     2    21    1
     6     3     4   ar
     7     3    22    1
     8     4     5   ar
     9     4     7    1
    10     5     6   ar
    11     5    23    1
    12     6    24    1
    13     7    12   ar
    14     7     8   ar
    15     8     9   ar
    16     8    19    1
    17     9    10   ar
    18    10    16   ar
    19    10    11   ar
    20    11    12   ar
    21    11    13   ar
    22    13    14   ar
    23    13    18    1
    24    14    15   ar
    25    15    16   ar
    26    15    17    1
    27    17    25    1
    28    17    26    1
    29    18    27    1
    30    18    28    1
    31    19    29    1
    32    19    30    1
