@<TRIPOS>MOLECULE
ZINC03831356
 65 66 0 0 0
SMALL
GASTEIGER

@<TRIPOS>ATOM
      1 C           0.9105    1.8488    1.7702 C.3     1  UNL1       -0.0645
      2 C          -0.4935    1.3339    1.4471 C.3     1  UNL1       -0.0432
      3 C          -0.3924    0.1386    0.4975 C.3     1  UNL1        0.0534
      4 H           0.2583   -0.6187    0.9346 H       1  UNL1        0.0410
      5 C           0.1880    0.5986   -0.8414 C.3     1  UNL1       -0.0523
      6 C          -1.7642   -0.4448    0.2764 C.2     1  UNL1        0.3102
      7 O          -2.7320    0.2783    0.2554 O.2     1  UNL1       -0.2505
      8 O          -1.9110   -1.7677    0.1028 O.3     1  UNL1       -0.4604
      9 C          -3.2593   -2.2575   -0.1214 C.3     1  UNL1        0.1127
     10 H          -3.8207   -1.5077   -0.6788 H       1  UNL1        0.0741
     11 C          -3.9375   -2.4818    1.2286 C.3     1  UNL1        0.0146
     12 C          -5.3559   -3.0108    0.9751 C.3     1  UNL1        0.0773
     13 H          -5.9116   -2.2996    0.3639 H       1  UNL1        0.0639
     14 C          -5.2330   -4.3237    0.2459 C.2     1  UNL1       -0.0522
     15 C          -4.2373   -4.5463   -0.5918 C.2     1  UNL1       -0.0423
     16 C          -3.1918   -3.5275   -0.9365 C.3     1  UNL1        0.0245
     17 H          -3.3303   -3.2557   -1.9829 H       1  UNL1        0.0388
     18 C          -1.8201   -4.1988   -0.8360 C.3     1  UNL1       -0.0247
     19 H          -1.6832   -4.6022    0.1672 H       1  UNL1        0.0313
     20 C          -1.7532   -5.3339   -1.8589 C.3     1  UNL1       -0.0219
     21 H          -0.8525   -5.9212   -1.6800 H       1  UNL1        0.0343
     22 C          -2.9488   -6.2324   -1.7673 C.2     1  UNL1       -0.0806
     23 C          -4.0923   -5.8890   -1.2004 C.2     1  UNL1       -0.0621
     24 C          -1.6864   -4.7338   -3.2647 C.3     1  UNL1       -0.0587
     25 C          -0.7241   -3.1739   -1.1345 C.3     1  UNL1       -0.0467
     26 C           0.5642   -3.9029   -1.5215 C.3     1  UNL1       -0.0265
     27 C           1.6164   -2.8818   -1.9587 C.3     1  UNL1        0.0576
     28 H           1.7496   -2.1382   -1.1730 H       1  UNL1        0.0594
     29 C           2.9447   -3.5963   -2.2154 C.3     1  UNL1       -0.0004
     30 C           4.0273   -2.5623   -2.5313 C.3     1  UNL1        0.0626
     31 H           4.0763   -1.8299   -1.7255 H       1  UNL1        0.0598
     32 C           5.3799   -3.2647   -2.6651 C.3     1  UNL1        0.0130
     33 C           6.4641   -2.2352   -2.8540 C.2     1  UNL1        0.0442
     34 O           6.1836   -1.0602   -2.8791 O.co2   1  UNL1       -0.5497
     35 O           3.7107   -1.9007   -3.7577 O.3     1  UNL1       -0.3913
     36 O           1.1837   -2.2356   -3.1576 O.3     1  UNL1       -0.3917
     37 O          -6.0295   -3.2094    2.2196 O.3     1  UNL1       -0.3876
     38 H           0.8385    2.7004    2.4467 H       1  UNL1        0.0230
     39 H           1.4882    1.0556    2.2447 H       1  UNL1        0.0230
     40 H           1.4052    2.1573    0.8492 H       1  UNL1        0.0230
     41 H          -1.0712    2.1272    0.9726 H       1  UNL1        0.0270
     42 H          -0.9882    1.0254    2.3681 H       1  UNL1        0.0270
     43 H          -0.3736    1.4594   -1.2043 H       1  UNL1        0.0238
     44 H           1.2334    0.8768   -0.7078 H       1  UNL1        0.0238
     45 H           0.1177   -0.2128   -1.5658 H       1  UNL1        0.0238
     46 H          -3.3714   -3.2118    1.8072 H       1  UNL1        0.0329
     47 H          -3.9891   -1.5399    1.7746 H       1  UNL1        0.0329
     48 H          -5.9708   -5.0948    0.4115 H       1  UNL1        0.0600
     49 H          -2.8715   -7.2226   -2.1915 H       1  UNL1        0.0575
     50 H          -4.9181   -6.5848   -1.1812 H       1  UNL1        0.0617
     51 H          -2.5926   -4.1599   -3.4582 H       1  UNL1        0.0235
     52 H          -0.8185   -4.0785   -3.3391 H       1  UNL1        0.0235
     53 H          -1.6003   -5.5354   -3.9983 H       1  UNL1        0.0235
     54 H          -1.0402   -2.5331   -1.9576 H       1  UNL1        0.0269
     55 H          -0.5449   -2.5651   -0.2482 H       1  UNL1        0.0269
     56 H           0.9362   -4.4633   -0.6638 H       1  UNL1        0.0290
     57 H           0.3604   -4.5893   -2.3433 H       1  UNL1        0.0290
     58 H           3.2303   -4.1620   -1.3285 H       1  UNL1        0.0315
     59 H           2.8342   -4.2763   -3.0601 H       1  UNL1        0.0315
     60 H           5.5804   -3.8420   -1.7625 H       1  UNL1        0.0350
     61 H           5.3589   -3.9325   -3.5263 H       1  UNL1        0.0350
     62 H           3.6506   -2.4928   -4.5199 H       1  UNL1        0.2098
     63 H           1.0445   -2.8382   -3.9010 H       1  UNL1        0.2098
     64 H          -6.9233   -3.5675    2.1303 H       1  UNL1        0.2102
     65 O           7.7413   -2.6235   -2.9944 O.co2   1  UNL1       -0.5497
@<TRIPOS>UNITY_ATOM_ATTR
65 1
charge -1
@<TRIPOS>BOND
     1     1     2    1
     2     1    38    1
     3     1    39    1
     4     1    40    1
     5     2     3    1
     6     2    41    1
     7     2    42    1
     8     3     4    1
     9     3     5    1
    10     3     6    1
    11     5    43    1
    12     5    44    1
    13     5    45    1
    14     6     7    2
    15     6     8    1
    16     8     9    1
    17     9    10    1
    18     9    16    1
    19     9    11    1
    20    11    12    1
    21    11    46    1
    22    11    47    1
    23    12    13    1
    24    12    14    1
    25    12    37    1
    26    14    15    2
    27    14    48    1
    28    15    23    1
    29    15    16    1
    30    16    17    1
    31    16    18    1
    32    18    19    1
    33    18    20    1
    34    18    25    1
    35    20    21    1
    36    20    22    1
    37    20    24    1
    38    22    23    2
    39    22    49    1
    40    23    50    1
    41    24    51    1
    42    24    52    1
    43    24    53    1
    44    25    26    1
    45    25    54    1
    46    25    55    1
    47    26    27    1
    48    26    56    1
    49    26    57    1
    50    27    28    1
    51    27    29    1
    52    27    36    1
    53    29    30    1
    54    29    58    1
    55    29    59    1
    56    30    31    1
    57    30    32    1
    58    30    35    1
    59    32    33    1
    60    32    60    1
    61    32    61    1
    62    33    34   ar
    63    33    65   ar
    64    35    62    1
    65    36    63    1
    66    37    64    1
