@<TRIPOS>MOLECULE
ZINC09302203
 54 57 0 0 0
SMALL
GASTEIGER

@<TRIPOS>ATOM
      1 C           1.0940   -1.3475    1.7862 C.3     1  UNL1       -0.0552
      2 C           1.2721   -0.7262    0.3916 C.3     1  UNL1       -0.0005
      3 C           1.2147   -1.8813   -0.5091 C.3     1  UNL1       -0.0363
      4 C           2.3426   -2.8372   -0.3252 C.3     1  UNL1        0.0107
      5 C           3.6611   -2.1199   -0.3867 C.2     1  UNL1        0.1561
      6 O           4.6992   -2.6583   -0.6989 O.2     1  UNL1       -0.2927
      7 C           3.6802   -0.7135    0.0339 C.2     1  UNL1       -0.0194
      8 C           2.6115   -0.0809    0.4335 C.2     1  UNL1       -0.0597
      9 C           2.7689    1.3342    0.7855 C.3     1  UNL1       -0.0305
     10 C           1.7270    2.1517    0.0650 C.3     1  UNL1       -0.0456
     11 C           0.2985    1.7051    0.2045 C.3     1  UNL1       -0.0270
     12 H          -0.0689    1.8998   -0.8838 H       1  UNL1        0.0311
     13 C           0.0547    0.2266    0.1814 C.3     1  UNL1        0.0297
     14 H          -0.2715    0.1477   -0.7606 H       1  UNL1        0.0389
     15 C          -1.1492   -0.2516    0.9626 C.2     1  UNL1        0.1381
     16 O          -1.9203   -1.0701    0.4255 O.2     1  UNL1       -0.2971
     17 C          -1.4454    0.3432    2.2943 C.3     1  UNL1        0.0148
     18 C          -0.8776    1.8027    2.4210 C.3     1  UNL1        0.0134
     19 C          -0.6879    2.4195    0.9898 C.3     1  UNL1       -0.0286
     20 H          -1.6104    2.4050    0.5181 H       1  UNL1        0.0310
     21 C          -0.2906    3.8317    1.4138 C.3     1  UNL1       -0.0463
     22 C          -1.0998    4.1159    2.6614 C.3     1  UNL1       -0.0162
     23 C          -1.7308    2.8416    3.0921 C.3     1  UNL1        0.1318
     24 C          -3.1596    2.7320    2.6234 C.2     1  UNL1        0.1902
     25 O          -3.4060    2.2460    1.5457 O.2     1  UNL1       -0.2919
     26 C          -4.2803    3.2290    3.4999 C.3     1  UNL1        0.1052
     27 O          -5.5303    3.0165    2.8410 O.3     1  UNL1       -0.3874
     28 O          -1.6985    2.7040    4.5127 O.3     1  UNL1       -0.3804
     29 C           0.4469    1.6453    3.1782 C.3     1  UNL1       -0.0559
     30 H           0.2095   -1.9844    1.7900 H       1  UNL1        0.0238
     31 H           1.9723   -1.9440    2.0331 H       1  UNL1        0.0238
     32 H           0.9740   -0.5546    2.5245 H       1  UNL1        0.0238
     33 H           0.3070   -2.4578   -0.4785 H       1  UNL1        0.0278
     34 H           1.2562   -1.4701   -1.5402 H       1  UNL1        0.0278
     35 H           2.2508   -3.2948    0.5592 H       1  UNL1        0.0345
     36 H           2.3836   -3.6122   -1.1209 H       1  UNL1        0.0345
     37 H           4.6166   -0.1887    0.0772 H       1  UNL1        0.0652
     38 H           2.6266    1.5190    1.8262 H       1  UNL1        0.0310
     39 H           3.7054    1.7268    0.4822 H       1  UNL1        0.0310
     40 H           2.0166    2.2308   -0.9956 H       1  UNL1        0.0271
     41 H           1.6960    3.2461    0.4253 H       1  UNL1        0.0271
     42 H          -2.4357    0.4020    2.4203 H       1  UNL1        0.0348
     43 H          -1.0440   -0.2918    3.0732 H       1  UNL1        0.0348
     44 H           0.7433    3.9529    1.6315 H       1  UNL1        0.0269
     45 H          -0.5485    4.5028    0.6233 H       1  UNL1        0.0269
     46 H          -0.5578    4.5576    3.4150 H       1  UNL1        0.0297
     47 H          -1.9790    4.9046    2.3931 H       1  UNL1        0.0297
     48 H          -4.2715    2.7307    4.3668 H       1  UNL1        0.0637
     49 H          -4.1469    4.2937    3.6914 H       1  UNL1        0.0637
     50 H          -6.2980    3.3134    3.3485 H       1  UNL1        0.2100
     51 H          -2.2363    3.3556    4.9832 H       1  UNL1        0.2108
     52 H           1.1576    1.0995    2.5576 H       1  UNL1        0.0236
     53 H           0.8507    2.6302    3.4126 H       1  UNL1        0.0236
     54 H           0.2736    1.0942    4.1026 H       1  UNL1        0.0236
@<TRIPOS>BOND
     1     1     2    1
     2     1    30    1
     3     1    31    1
     4     1    32    1
     5     2     8    1
     6     2    13    1
     7     2     3    1
     8     3     4    1
     9     3    33    1
    10     3    34    1
    11     4     5    1
    12     4    35    1
    13     4    36    1
    14     5     6    2
    15     5     7    1
    16     7     8    2
    17     7    37    1
    18     8     9    1
    19     9    10    1
    20     9    38    1
    21     9    39    1
    22    10    11    1
    23    10    40    1
    24    10    41    1
    25    11    12    1
    26    11    19    1
    27    11    13    1
    28    13    14    1
    29    13    15    1
    30    15    16    2
    31    15    17    1
    32    17    18    1
    33    17    42    1
    34    17    43    1
    35    18    23    1
    36    18    19    1
    37    18    29    1
    38    19    20    1
    39    19    21    1
    40    21    22    1
    41    21    44    1
    42    21    45    1
    43    22    23    1
    44    22    46    1
    45    22    47    1
    46    23    24    1
    47    23    28    1
    48    24    25    2
    49    24    26    1
    50    26    27    1
    51    26    48    1
    52    26    49    1
    53    27    50    1
    54    28    51    1
    55    29    52    1
    56    29    53    1
    57    29    54    1
