@<TRIPOS>MOLECULE
ZINC01481771
 32 32 0 0 0
SMALL
GASTEIGER

@<TRIPOS>ATOM
      1 C           0.2342    1.3624    0.4328 C.3     1  UNL1       -0.0213
      2 C           0.2203   -0.1408    0.1481 C.3     1  UNL1       -0.0190
      3 H           0.9291   -0.6420    0.8073 H       1  UNL1        0.0852
      4 C          -1.1848   -0.6937    0.3952 C.3     1  UNL1        0.0153
      5 C          -1.5435   -0.5225    1.8489 C.ar    1  UNL1       -0.0421
      6 C          -1.1358   -1.4626    2.7767 C.ar    1  UNL1       -0.0584
      7 C          -1.4607   -1.3030    4.1109 C.ar    1  UNL1       -0.0615
      8 C          -2.2023   -0.2088    4.5156 C.ar    1  UNL1       -0.0617
      9 C          -2.6144    0.7285    3.5869 C.ar    1  UNL1       -0.0615
     10 C          -2.2850    0.5717    2.2536 C.ar    1  UNL1       -0.0584
     11 C           0.4303   -1.7919   -1.6104 C.3     1  UNL1       -0.0419
     12 C           1.9773    0.0678   -1.5048 C.3     1  UNL1        0.0307
     13 C           2.2428    0.0401   -2.9524 C.1     1  UNL1       -0.0562
     14 C           2.4545    0.0180   -4.1069 C.1     1  UNL1       -0.1140
     15 H           1.2352    1.7563    0.2568 H       1  UNL1        0.0284
     16 H          -0.4746    1.8636   -0.2264 H       1  UNL1        0.0284
     17 H          -0.0480    1.5382    1.4708 H       1  UNL1        0.0284
     18 H          -1.9019   -0.1526   -0.2221 H       1  UNL1        0.0368
     19 H          -1.2092   -1.7524    0.1372 H       1  UNL1        0.0368
     20 H          -0.5603   -2.3198    2.4599 H       1  UNL1        0.0620
     21 H          -1.1391   -2.0356    4.8363 H       1  UNL1        0.0618
     22 H          -2.4599   -0.0865    5.5572 H       1  UNL1        0.0618
     23 H          -3.1940    1.5832    3.9030 H       1  UNL1        0.0618
     24 H          -2.6073    1.3039    1.5280 H       1  UNL1        0.0620
     25 H          -0.6300   -2.0445   -1.5990 H       1  UNL1        0.0778
     26 H           0.8342   -1.9643   -2.6080 H       1  UNL1        0.0778
     27 H           0.9603   -2.4161   -0.8910 H       1  UNL1        0.0778
     28 H           2.1050    1.0838   -1.1313 H       1  UNL1        0.0959
     29 H           2.6743   -0.5971   -0.9948 H       1  UNL1        0.0959
     30 H           2.6439   -0.0017   -5.1395 H       1  UNL1        0.1230
     31 N           0.5832   -0.3623   -1.2675 N.4     1  UNL1        0.2441
     32 H          -0.0429    0.1923   -1.8630 H       1  UNL1        0.2043
@<TRIPOS>UNITY_ATOM_ATTR
31 1
charge 1
@<TRIPOS>BOND
     1     1     2    1
     2     1    15    1
     3     1    16    1
     4     1    17    1
     5     2     3    1
     6     2     4    1
     7     2    31    1
     8     4     5    1
     9     4    18    1
    10     4    19    1
    11     5    10   ar
    12     5     6   ar
    13     6     7   ar
    14     6    20    1
    15     7     8   ar
    16     7    21    1
    17     8     9   ar
    18     8    22    1
    19     9    10   ar
    20     9    23    1
    21    10    24    1
    22    11    25    1
    23    11    26    1
    24    11    27    1
    25    11    31    1
    26    12    13    1
    27    12    28    1
    28    12    29    1
    29    12    31    1
    30    13    14    3
    31    14    30    1
    32    31    32    1
