@<TRIPOS>MOLECULE
ZINC03831456
 81 84 0 0 0
SMALL
GASTEIGER

@<TRIPOS>ATOM
      1 C          -4.5496    3.4751   -1.4355 C.3     1  UNL1       -0.0466
      2 C          -4.9247    2.0619   -1.8006 C.2     1  UNL1       -0.0876
      3 C          -3.9931    1.2002   -2.1259 C.2     1  UNL1       -0.0711
      4 C          -2.5464    1.6221   -2.1349 C.3     1  UNL1       -0.0313
      5 C          -1.9014    1.2607   -0.7954 C.3     1  UNL1       -0.0465
      6 C          -0.4326    1.6890   -0.8046 C.3     1  UNL1       -0.0402
      7 H           0.0702    1.2441   -1.6633 H       1  UNL1        0.0301
      8 C          -0.3466    3.2138   -0.8969 C.3     1  UNL1       -0.0621
      9 C           0.2438    1.2175    0.4828 C.3     1  UNL1       -0.0325
     10 H          -0.2136    1.6720    1.3513 H       1  UNL1        0.0309
     11 C           0.1982   -0.3294    0.5751 C.3     1  UNL1       -0.0489
     12 C           1.6651   -0.7958    0.8079 C.3     1  UNL1       -0.0457
     13 C           2.3177    0.4702    1.3783 C.3     1  UNL1       -0.0140
     14 H           1.9612    0.6322    2.4107 H       1  UNL1        0.0351
     15 C           1.7455    1.5553    0.4350 C.3     1  UNL1       -0.0225
     16 C           2.1313    2.9338    0.8881 C.3     1  UNL1       -0.0463
     17 C           3.5348    2.9768    1.5112 C.3     1  UNL1       -0.0455
     18 C           4.4155    1.8570    0.9807 C.3     1  UNL1       -0.0139
     19 H           4.4019    1.9362   -0.1110 H       1  UNL1        0.0351
     20 C           3.8155    0.5270    1.3484 C.2     1  UNL1       -0.0662
     21 C           4.5131   -0.5288    1.6511 C.2     1  UNL1       -0.0839
     22 C           6.0234   -0.4525    1.7169 C.3     1  UNL1       -0.0308
     23 C           6.3142    0.9348    2.3118 C.3     1  UNL1       -0.0267
     24 H           5.6228    1.0244    3.1875 H       1  UNL1        0.0313
     25 C           5.8859    2.0077    1.3270 C.3     1  UNL1       -0.0220
     26 C           6.1738    3.3917    1.9045 C.3     1  UNL1       -0.0445
     27 C           7.6554    3.5123    2.2604 C.3     1  UNL1       -0.0261
     28 C           8.0384    2.4751    3.3096 C.3     1  UNL1        0.0581
     29 H           7.4810    2.6773    4.2305 H       1  UNL1        0.0596
     30 C           7.7202    1.0566    2.8416 C.3     1  UNL1       -0.0142
     31 H           7.7816    0.4098    3.7487 H       1  UNL1        0.0326
     32 C           8.7885    0.5478    1.8798 C.3     1  UNL1       -0.0598
     33 O           9.4396    2.5729    3.5929 O.3     1  UNL1       -0.3915
     34 C           6.6425    1.8764    0.0006 C.3     1  UNL1       -0.0587
     35 C           2.1876    1.3275   -1.0115 C.3     1  UNL1       -0.0588
     36 C          -4.3682   -0.2129   -2.4910 C.3     1  UNL1       -0.0256
     37 C          -3.9052   -0.5109   -3.9185 C.3     1  UNL1       -0.0590
     38 C          -3.6933   -1.1862   -1.5224 C.3     1  UNL1       -0.0590
     39 H          -3.8880    3.4632   -0.5694 H       1  UNL1        0.0272
     40 H          -4.0389    3.9443   -2.2764 H       1  UNL1        0.0272
     41 H          -5.4507    4.0400   -1.1966 H       1  UNL1        0.0272
     42 H          -5.9615    1.7596   -1.7941 H       1  UNL1        0.0569
     43 H          -2.4830    2.6992   -2.2898 H       1  UNL1        0.0310
     44 H          -2.0230    1.1077   -2.9408 H       1  UNL1        0.0310
     45 H          -1.9648    0.1836   -0.6405 H       1  UNL1        0.0271
     46 H          -2.4249    1.7751    0.0105 H       1  UNL1        0.0271
     47 H          -0.8495    3.6587   -0.0382 H       1  UNL1        0.0233
     48 H           0.6998    3.5190   -0.9034 H       1  UNL1        0.0233
     49 H          -0.8289    3.5500   -1.8148 H       1  UNL1        0.0233
     50 H          -0.4301   -0.6407    1.4086 H       1  UNL1        0.0268
     51 H          -0.1794   -0.7504   -0.3567 H       1  UNL1        0.0268
     52 H           1.6876   -1.6028    1.5477 H       1  UNL1        0.0271
     53 H           2.1305   -1.1271   -0.1147 H       1  UNL1        0.0271
     54 H           1.4101    3.2703    1.6441 H       1  UNL1        0.0271
     55 H           2.0876    3.6308    0.0466 H       1  UNL1        0.0271
     56 H           3.4436    2.8787    2.5982 H       1  UNL1        0.0271
     57 H           3.9940    3.9437    1.2935 H       1  UNL1        0.0271
     58 H           4.0206   -1.4607    1.8673 H       1  UNL1        0.0572
     59 H           6.3821   -1.2285    2.4014 H       1  UNL1        0.0310
     60 H           6.4557   -0.5821    0.7430 H       1  UNL1        0.0310
     61 H           5.5723    3.5509    2.7974 H       1  UNL1        0.0272
     62 H           5.9215    4.1517    1.1615 H       1  UNL1        0.0272
     63 H           7.8293    4.5158    2.6759 H       1  UNL1        0.0290
     64 H           8.2741    3.4029    1.3733 H       1  UNL1        0.0290
     65 H           8.8261    1.1946    1.0033 H       1  UNL1        0.0233
     66 H           9.7581    0.5537    2.3776 H       1  UNL1        0.0233
     67 H           8.5449   -0.4688    1.5709 H       1  UNL1        0.0233
     68 H           9.7193    3.4474    3.8966 H       1  UNL1        0.2098
     69 H           6.5426    0.8582   -0.3754 H       1  UNL1        0.0235
     70 H           6.2262    2.5744   -0.7258 H       1  UNL1        0.0235
     71 H           7.6967    2.1032    0.1596 H       1  UNL1        0.0235
     72 H           1.6916    2.0488   -1.6610 H       1  UNL1        0.0235
     73 H           3.2677    1.4543   -1.0857 H       1  UNL1        0.0235
     74 H           1.9186    0.3169   -1.3188 H       1  UNL1        0.0235
     75 H          -5.4501   -0.3295   -2.4281 H       1  UNL1        0.0340
     76 H          -4.1765   -1.5330   -4.1826 H       1  UNL1        0.0235
     77 H          -4.3860    0.1825   -4.6085 H       1  UNL1        0.0235
     78 H          -2.8233   -0.3943   -3.9813 H       1  UNL1        0.0235
     79 H          -4.0232   -0.9739   -0.5054 H       1  UNL1        0.0235
     80 H          -3.9646   -2.2083   -1.7864 H       1  UNL1        0.0235
     81 H          -2.6114   -1.0696   -1.5852 H       1  UNL1        0.0235
@<TRIPOS>BOND
     1     1     2    1
     2     1    39    1
     3     1    40    1
     4     1    41    1
     5     2     3    2
     6     2    42    1
     7     3     4    1
     8     3    36    1
     9     4     5    1
    10     4    43    1
    11     4    44    1
    12     5     6    1
    13     5    45    1
    14     5    46    1
    15     6     7    1
    16     6     8    1
    17     6     9    1
    18     8    47    1
    19     8    48    1
    20     8    49    1
    21     9    10    1
    22     9    15    1
    23     9    11    1
    24    11    12    1
    25    11    50    1
    26    11    51    1
    27    12    13    1
    28    12    52    1
    29    12    53    1
    30    13    14    1
    31    13    20    1
    32    13    15    1
    33    15    16    1
    34    15    35    1
    35    16    17    1
    36    16    54    1
    37    16    55    1
    38    17    18    1
    39    17    56    1
    40    17    57    1
    41    18    19    1
    42    18    25    1
    43    18    20    1
    44    20    21    2
    45    21    22    1
    46    21    58    1
    47    22    23    1
    48    22    59    1
    49    22    60    1
    50    23    24    1
    51    23    30    1
    52    23    25    1
    53    25    26    1
    54    25    34    1
    55    26    27    1
    56    26    61    1
    57    26    62    1
    58    27    28    1
    59    27    63    1
    60    27    64    1
    61    28    29    1
    62    28    30    1
    63    28    33    1
    64    30    31    1
    65    30    32    1
    66    32    65    1
    67    32    66    1
    68    32    67    1
    69    33    68    1
    70    34    69    1
    71    34    70    1
    72    34    71    1
    73    35    72    1
    74    35    73    1
    75    35    74    1
    76    36    37    1
    77    36    38    1
    78    36    75    1
    79    37    76    1
    80    37    77    1
    81    37    78    1
    82    38    79    1
    83    38    80    1
    84    38    81    1
