@<TRIPOS>MOLECULE
ZINC03831189
 69 74 0 0 0
SMALL
GASTEIGER

@<TRIPOS>ATOM
      1 C          -4.4799    2.4314    6.2198 C.3     1  UNL1       -0.0561
      2 C          -3.7959    1.9937    4.9231 C.3     1  UNL1       -0.0139
      3 C          -4.3552    0.6492    4.4404 C.3     1  UNL1       -0.0429
      4 C          -3.6028    0.2028    3.1847 C.3     1  UNL1       -0.0329
      5 C          -2.5389    1.2478    2.8251 C.3     1  UNL1        0.0858
      6 C          -3.2478    2.5780    2.5352 C.3     1  UNL1       -0.0329
      7 C          -3.9987    3.0287    3.8079 C.3     1  UNL1       -0.0429
      8 C          -1.6438    1.4392    4.0405 C.2     1  UNL1       -0.0708
      9 C          -2.2981    1.8274    5.1326 C.2     1  UNL1       -0.0810
     10 C          -1.7328    0.8010    1.6328 C.2     1  UNL1        0.3174
     11 O          -1.9736   -0.2580    1.1032 O.2     1  UNL1       -0.2499
     12 O          -0.7473    1.5796    1.1590 O.3     1  UNL1       -0.4602
     13 C          -0.0127    1.0858    0.0080 C.3     1  UNL1        0.1087
     14 H           0.0021   -0.0041    0.0020 H       1  UNL1        0.0739
     15 C          -0.6212    1.6297   -1.3053 C.3     1  UNL1       -0.0149
     16 C           0.5610    1.9377   -2.2433 C.3     1  UNL1       -0.0460
     17 C           1.8456    1.5249   -1.4749 C.3     1  UNL1       -0.0290
     18 H           2.6942    2.1699   -1.7024 H       1  UNL1        0.0310
     19 C           1.4208    1.6480   -0.0027 C.3     1  UNL1        0.0081
     20 C           2.3385    0.9163    0.9475 C.3     1  UNL1       -0.0437
     21 C           2.5129   -0.5422    0.5287 C.3     1  UNL1       -0.0488
     22 C           3.1143   -0.5756   -0.8829 C.3     1  UNL1       -0.0314
     23 H           4.0622   -0.0376   -0.8913 H       1  UNL1        0.0309
     24 C           2.1390    0.0865   -1.8504 C.3     1  UNL1       -0.0339
     25 H           1.1958   -0.4597   -1.8425 H       1  UNL1        0.0307
     26 C           2.7270    0.0643   -3.2665 C.3     1  UNL1       -0.0460
     27 C           2.8649   -1.3844   -3.7362 C.3     1  UNL1       -0.0308
     28 C           3.6978   -2.1457   -2.7211 C.2     1  UNL1       -0.0629
     29 C           4.7142   -2.8784   -3.1751 C.2     1  UNL1       -0.0197
     30 C           5.5403   -3.6462   -2.2369 C.2     1  UNL1        0.1561
     31 O           6.6638   -4.0053   -2.5215 O.2     1  UNL1       -0.2927
     32 C           4.9165   -3.9670   -0.8927 C.3     1  UNL1        0.0104
     33 C           4.3463   -2.6653   -0.3314 C.3     1  UNL1       -0.0392
     34 C           3.3493   -2.0433   -1.2655 C.3     1  UNL1       -0.0160
     35 H           2.4135   -2.5821   -1.1166 H       1  UNL1        0.0349
     36 C           1.3829    3.1305    0.3736 C.3     1  UNL1       -0.0559
     37 H          -4.3085    1.6816    6.9921 H       1  UNL1        0.0238
     38 H          -4.0675    3.3871    6.5433 H       1  UNL1        0.0238
     39 H          -5.5510    2.5375    6.0477 H       1  UNL1        0.0238
     40 H          -5.4147    0.7587    4.2091 H       1  UNL1        0.0274
     41 H          -4.2301   -0.0984    5.2237 H       1  UNL1        0.0274
     42 H          -4.3053    0.1004    2.3577 H       1  UNL1        0.0279
     43 H          -3.1206   -0.7566    3.3722 H       1  UNL1        0.0279
     44 H          -2.5096    3.3294    2.2550 H       1  UNL1        0.0279
     45 H          -3.9554    2.4416    1.7174 H       1  UNL1        0.0279
     46 H          -5.0615    3.1162    3.5826 H       1  UNL1        0.0274
     47 H          -3.6164    3.9954    4.1359 H       1  UNL1        0.0274
     48 H          -0.5781    1.2648    4.0219 H       1  UNL1        0.0580
     49 H          -1.8112    2.0072    6.0796 H       1  UNL1        0.0575
     50 H          -1.2694    0.8780   -1.7559 H       1  UNL1        0.0301
     51 H          -1.1867    2.5400   -1.1060 H       1  UNL1        0.0301
     52 H           0.5885    3.0027   -2.4738 H       1  UNL1        0.0269
     53 H           0.4713    1.3575   -3.1617 H       1  UNL1        0.0269
     54 H           3.3124    1.4059    0.9525 H       1  UNL1        0.0272
     55 H           1.9160    0.9520    1.9517 H       1  UNL1        0.0272
     56 H           3.1842   -1.0452    1.2247 H       1  UNL1        0.0268
     57 H           1.5440   -1.0415    0.5289 H       1  UNL1        0.0268
     58 H           2.0653    0.6046   -3.9434 H       1  UNL1        0.0271
     59 H           3.7080    0.5395   -3.2603 H       1  UNL1        0.0271
     60 H           1.8775   -1.8393   -3.8143 H       1  UNL1        0.0310
     61 H           3.3567   -1.4085   -4.7087 H       1  UNL1        0.0310
     62 H           4.9293   -2.9073   -4.2331 H       1  UNL1        0.0652
     63 H           4.1927   -4.6461   -1.0147 H       1  UNL1        0.0345
     64 H           5.6750   -4.3622   -0.2171 H       1  UNL1        0.0345
     65 H           3.8650   -2.8712    0.6247 H       1  UNL1        0.0275
     66 H           5.1614   -1.9590   -0.1738 H       1  UNL1        0.0275
     67 H           0.9777    3.2398    1.3796 H       1  UNL1        0.0236
     68 H           2.3928    3.5393    0.3423 H       1  UNL1        0.0236
     69 H           0.7510    3.6686   -0.3330 H       1  UNL1        0.0236
@<TRIPOS>BOND
     1     1     2    1
     2     1    37    1
     3     1    38    1
     4     1    39    1
     5     2     7    1
     6     2     9    1
     7     2     3    1
     8     3     4    1
     9     3    40    1
    10     3    41    1
    11     4     5    1
    12     4    42    1
    13     4    43    1
    14     5     6    1
    15     5     8    1
    16     5    10    1
    17     6     7    1
    18     6    44    1
    19     6    45    1
    20     7    46    1
    21     7    47    1
    22     8     9    2
    23     8    48    1
    24     9    49    1
    25    10    11    2
    26    10    12    1
    27    12    13    1
    28    13    14    1
    29    13    19    1
    30    13    15    1
    31    15    16    1
    32    15    50    1
    33    15    51    1
    34    16    17    1
    35    16    52    1
    36    16    53    1
    37    17    18    1
    38    17    24    1
    39    17    19    1
    40    19    20    1
    41    19    36    1
    42    20    21    1
    43    20    54    1
    44    20    55    1
    45    21    22    1
    46    21    56    1
    47    21    57    1
    48    22    23    1
    49    22    34    1
    50    22    24    1
    51    24    25    1
    52    24    26    1
    53    26    27    1
    54    26    58    1
    55    26    59    1
    56    27    28    1
    57    27    60    1
    58    27    61    1
    59    28    34    1
    60    28    29    2
    61    29    30    1
    62    29    62    1
    63    30    31    2
    64    30    32    1
    65    32    33    1
    66    32    63    1
    67    32    64    1
    68    33    34    1
    69    33    65    1
    70    33    66    1
    71    34    35    1
    72    36    67    1
    73    36    68    1
    74    36    69    1
