@<TRIPOS>MOLECULE
ZINC03831302
 28 29 0 0 0
SMALL
GASTEIGER

@<TRIPOS>ATOM
      1 C          -8.5501    6.7786    0.0803 C.ar    1  UNL1       -0.0616
      2 C          -7.3868    7.5280    0.0789 C.ar    1  UNL1       -0.0597
      3 C          -6.1585    6.9008    0.0697 C.ar    1  UNL1       -0.0345
      4 C          -6.0906    5.5051    0.0618 C.ar    1  UNL1        0.0862
      5 C          -7.2696    4.7551    0.0579 C.ar    1  UNL1       -0.0345
      6 C          -8.4907    5.3960    0.0725 C.ar    1  UNL1       -0.0597
      7 N          -4.8763    4.8764    0.0521 N.2     1  UNL1       -0.1491
      8 N          -4.8173    3.5878    0.0448 N.2     1  UNL1       -0.1412
      9 C          -3.6086    2.9620    0.0353 C.ar    1  UNL1        0.1732
     10 C          -2.4197    3.7074    0.0337 C.ar    1  UNL1       -0.0190
     11 C          -1.2263    3.0361    0.0301 C.ar    1  UNL1        0.0281
     12 C          -1.2207    1.6424    0.0168 C.ar    1  UNL1        0.2682
     13 C          -3.5309    1.5570    0.0273 C.ar    1  UNL1        0.2958
     14 N          -4.6915    0.8027    0.0282 N.pl3   1  UNL1       -0.3037
     15 N          -0.0111    0.9658    0.0074 N.pl3   1  UNL1       -0.3056
     16 H          -9.5092    7.2752    0.0872 H       1  UNL1        0.0618
     17 H          -7.4408    8.6066    0.0846 H       1  UNL1        0.0618
     18 H          -5.2514    7.4869    0.0682 H       1  UNL1        0.0639
     19 H          -7.2247    3.6760    0.0473 H       1  UNL1        0.0639
     20 H          -9.4027    4.8176    0.0737 H       1  UNL1        0.0618
     21 H          -2.4454    4.7870    0.0400 H       1  UNL1        0.0644
     22 H          -0.2952    3.5833    0.0330 H       1  UNL1        0.0699
     23 H          -4.6404   -0.1660    0.0224 H       1  UNL1        0.1478
     24 H          -5.5559    1.2427    0.0347 H       1  UNL1        0.1478
     25 H           0.0021   -0.0041    0.0020 H       1  UNL1        0.1477
     26 H           0.8223    1.4622    0.0021 H       1  UNL1        0.1477
     27 N          -2.3499    0.8748    0.0180 N.ar    1  UNL1       -0.1776
     28 H          -2.3124   -0.1512    0.0122 H       1  UNL1        0.4562
@<TRIPOS>UNITY_ATOM_ATTR
27 1
charge 1
@<TRIPOS>BOND
     1     1     6   ar
     2     1     2   ar
     3     1    16    1
     4     2     3   ar
     5     2    17    1
     6     3     4   ar
     7     3    18    1
     8     4     5   ar
     9     4     7    1
    10     5     6   ar
    11     5    19    1
    12     6    20    1
    13     7     8    2
    14     8     9    1
    15     9    13   ar
    16     9    10   ar
    17    10    11   ar
    18    10    21    1
    19    11    12   ar
    20    11    22    1
    21    12    15    1
    22    12    27   ar
    23    13    14    1
    24    13    27   ar
    25    14    23    1
    26    14    24    1
    27    15    25    1
    28    15    26    1
    29    27    28    1
