@<TRIPOS>MOLECULE
ZINC00403010
 49 50 0 0 0
SMALL
GASTEIGER

@<TRIPOS>ATOM
      1 C           5.9692   -1.8267   -2.9469 C.3     1  UNL1       -0.0216
      2 C           5.4771   -1.6952   -1.5042 C.3     1  UNL1       -0.0251
      3 H           6.2110   -1.1411   -0.9191 H       1  UNL1        0.0848
      4 C           4.1419   -0.9483   -1.4869 C.3     1  UNL1       -0.0060
      5 C           3.7112   -0.7071   -0.0387 C.3     1  UNL1       -0.0226
      6 C           2.3960    0.0285   -0.0217 C.ar    1  UNL1       -0.0472
      7 C           1.2084   -0.6789   -0.0136 C.ar    1  UNL1       -0.0586
      8 C           0.0021   -0.0041    0.0020 C.ar    1  UNL1       -0.0615
      9 C          -0.0167    1.3781    0.0096 C.ar    1  UNL1       -0.0617
     10 C           1.1709    2.0855    0.0021 C.ar    1  UNL1       -0.0615
     11 C           2.3773    1.4107   -0.0136 C.ar    1  UNL1       -0.0586
     12 C           6.5621   -3.5447   -0.3796 C.3     1  UNL1       -0.0026
     13 C           6.3355   -4.9364    0.2142 C.3     1  UNL1        0.1197
     14 H           5.9763   -5.6095   -0.5643 H       1  UNL1        0.0698
     15 C           7.6329   -5.4615    0.7729 C.ar    1  UNL1       -0.0131
     16 C           8.0212   -5.1150    2.0569 C.ar    1  UNL1       -0.0524
     17 C           9.2050   -5.5936    2.5817 C.ar    1  UNL1       -0.0191
     18 C          10.0202   -6.4180    1.8201 C.ar    1  UNL1        0.1290
     19 C           9.6336   -6.7664    0.5190 C.ar    1  UNL1        0.0781
     20 C           8.4304   -6.2793    0.0024 C.ar    1  UNL1       -0.0403
     21 C          10.4925   -7.6422   -0.3008 C.2     1  UNL1        0.2451
     22 O          11.5390   -8.0641    0.1523 O.2     1  UNL1       -0.2703
     23 N          10.1172   -7.9745   -1.5518 N.am    1  UNL1       -0.3252
     24 O          11.1864   -6.8844    2.3324 O.3     1  UNL1       -0.5060
     25 O           5.3646   -4.8560    1.2596 O.3     1  UNL1       -0.3819
     26 H           5.2353   -2.3809   -3.5321 H       1  UNL1        0.0284
     27 H           6.1025   -0.8342   -3.3773 H       1  UNL1        0.0284
     28 H           6.9204   -2.3588   -2.9593 H       1  UNL1        0.0284
     29 H           3.3852   -1.5449   -1.9964 H       1  UNL1        0.0323
     30 H           4.2541    0.0085   -1.9968 H       1  UNL1        0.0323
     31 H           4.4678   -0.1105    0.4708 H       1  UNL1        0.0315
     32 H           3.5989   -1.6640    0.4711 H       1  UNL1        0.0315
     33 H           1.2231   -1.7587   -0.0199 H       1  UNL1        0.0620
     34 H          -0.9258   -0.5567    0.0079 H       1  UNL1        0.0618
     35 H          -0.9592    1.9054    0.0170 H       1  UNL1        0.0618
     36 H           1.1563    3.1654    0.0077 H       1  UNL1        0.0618
     37 H           3.3051    1.9634   -0.0195 H       1  UNL1        0.0620
     38 H           7.3027   -3.6061   -1.1770 H       1  UNL1        0.0843
     39 H           6.9213   -2.8716    0.3988 H       1  UNL1        0.0843
     40 H           7.3919   -4.4701    2.6524 H       1  UNL1        0.0622
     41 H           9.4991   -5.3221    3.5848 H       1  UNL1        0.0654
     42 H           8.1255   -6.5438   -0.9994 H       1  UNL1        0.0630
     43 H           9.2824   -7.6379   -1.9133 H       1  UNL1        0.1453
     44 H          10.6819   -8.5503   -2.0908 H       1  UNL1        0.1453
     45 H          11.9467   -6.3105    2.1656 H       1  UNL1        0.2922
     46 H           5.6183   -4.2728    1.9880 H       1  UNL1        0.2105
     47 N           5.2881   -3.0382   -0.9241 N.4     1  UNL1        0.2310
     48 H           4.9533   -3.6783   -1.6538 H       1  UNL1        0.2017
     49 H           4.5939   -2.9865   -0.1693 H       1  UNL1        0.2017
@<TRIPOS>UNITY_ATOM_ATTR
47 1
charge 1
@<TRIPOS>BOND
     1     1     2    1
     2     1    26    1
     3     1    27    1
     4     1    28    1
     5     2     3    1
     6     2     4    1
     7     2    47    1
     8     4     5    1
     9     4    29    1
    10     4    30    1
    11     5     6    1
    12     5    31    1
    13     5    32    1
    14     6    11   ar
    15     6     7   ar
    16     7     8   ar
    17     7    33    1
    18     8     9   ar
    19     8    34    1
    20     9    10   ar
    21     9    35    1
    22    10    11   ar
    23    10    36    1
    24    11    37    1
    25    12    13    1
    26    12    38    1
    27    12    39    1
    28    12    47    1
    29    13    14    1
    30    13    15    1
    31    13    25    1
    32    15    20   ar
    33    15    16   ar
    34    16    17   ar
    35    16    40    1
    36    17    18   ar
    37    17    41    1
    38    18    19   ar
    39    18    24    1
    40    19    20   ar
    41    19    21    1
    42    20    42    1
    43    21    22    2
    44    21    23   am
    45    23    43    1
    46    23    44    1
    47    24    45    1
    48    25    46    1
    49    47    48    1
    50    47    49    1
