@<TRIPOS>MOLECULE
ZINC03831246
 52 55 0 0 0
SMALL
GASTEIGER

@<TRIPOS>ATOM
      1 C          -2.3408   -0.2304    2.0794 C.3     1  UNL1       -0.0567
      2 C          -2.1938    1.0671    1.2820 C.3     1  UNL1       -0.0004
      3 C          -2.6163    0.9013   -0.1808 C.3     1  UNL1       -0.0445
      4 C          -4.1274    0.7175   -0.2754 C.3     1  UNL1       -0.0487
      5 C          -4.8185    1.9853    0.2430 C.3     1  UNL1       -0.0292
      6 H          -4.4809    2.8453   -0.3353 H       1  UNL1        0.0310
      7 C          -4.4522    2.1787    1.6888 C.3     1  UNL1       -0.0342
      8 H          -4.8546    1.3378    2.2536 H       1  UNL1        0.0306
      9 C          -2.9616    2.2317    1.9295 C.3     1  UNL1       -0.0298
     10 H          -2.7740    2.2256    3.0032 H       1  UNL1        0.0310
     11 C          -2.3084    3.4833    1.3144 C.3     1  UNL1       -0.0468
     12 C          -0.8070    3.1174    1.2623 C.3     1  UNL1       -0.0235
     13 C          -0.7288    1.5792    1.2668 C.3     1  UNL1        0.0689
     14 C          -0.0127    1.0858    0.0080 C.3     1  UNL1       -0.0356
     15 O          -0.0385    1.1263    2.4331 O.3     1  UNL1       -0.3883
     16 C          -5.0901    3.4573    2.2752 C.3     1  UNL1       -0.0494
     17 C          -6.5242    3.6230    1.7692 C.3     1  UNL1       -0.0488
     18 C          -7.0424    2.2506    1.3573 C.3     1  UNL1       -0.0222
     19 H          -6.8253    1.5356    2.1509 H       1  UNL1        0.0312
     20 C          -6.3232    1.8196    0.0744 C.3     1  UNL1        0.0085
     21 C          -6.7184    0.3731   -0.2213 C.3     1  UNL1        0.0983
     22 O          -8.1660    0.3437   -0.4218 O.3     1  UNL1       -0.4641
     23 C          -8.9164    0.8986    0.5510 C.2     1  UNL1        0.3074
     24 O          -9.8697    0.3086    1.0015 O.2     1  UNL1       -0.2508
     25 C          -8.5469    2.2745    1.0716 C.3     1  UNL1        0.0484
     26 C          -6.7937    2.7077   -1.0792 C.3     1  UNL1       -0.0559
     27 H          -2.0053   -0.0674    3.1036 H       1  UNL1        0.0236
     28 H          -3.3867   -0.5373    2.0842 H       1  UNL1        0.0236
     29 H          -1.7353   -1.0107    1.6185 H       1  UNL1        0.0236
     30 H          -2.3245    1.7879   -0.7437 H       1  UNL1        0.0272
     31 H          -2.1192    0.0282   -0.6035 H       1  UNL1        0.0272
     32 H          -4.4098    0.5471   -1.3143 H       1  UNL1        0.0268
     33 H          -4.4296   -0.1365    0.3308 H       1  UNL1        0.0268
     34 H          -2.4698    4.3529    1.9514 H       1  UNL1        0.0269
     35 H          -2.6938    3.6667    0.3114 H       1  UNL1        0.0269
     36 H          -0.2941    3.5199    2.1358 H       1  UNL1        0.0293
     37 H          -0.3580    3.5115    0.3506 H       1  UNL1        0.0293
     38 H           0.0021   -0.0041    0.0020 H       1  UNL1        0.0257
     39 H           1.0099    1.4631    0.0003 H       1  UNL1        0.0257
     40 H          -0.5399    1.4469   -0.8751 H       1  UNL1        0.0257
     41 H           0.8797    1.4249    2.4875 H       1  UNL1        0.2102
     42 H          -4.4996    4.3204    1.9680 H       1  UNL1        0.0268
     43 H          -5.0987    3.3979    3.3635 H       1  UNL1        0.0268
     44 H          -6.5362    4.2939    0.9102 H       1  UNL1        0.0268
     45 H          -7.1501    4.0297    2.5634 H       1  UNL1        0.0268
     46 H          -6.2130    0.0286   -1.1235 H       1  UNL1        0.0703
     47 H          -6.4486   -0.2638    0.6211 H       1  UNL1        0.0703
     48 H          -8.7809    3.0299    0.3214 H       1  UNL1        0.0380
     49 H          -9.0949    2.4827    1.9905 H       1  UNL1        0.0380
     50 H          -6.2854    2.4112   -1.9966 H       1  UNL1        0.0236
     51 H          -7.8703    2.5961   -1.2079 H       1  UNL1        0.0236
     52 H          -6.5606    3.7486   -0.8548 H       1  UNL1        0.0236
@<TRIPOS>BOND
     1     1     2    1
     2     1    27    1
     3     1    28    1
     4     1    29    1
     5     2     9    1
     6     2    13    1
     7     2     3    1
     8     3     4    1
     9     3    30    1
    10     3    31    1
    11     4     5    1
    12     4    32    1
    13     4    33    1
    14     5     6    1
    15     5    20    1
    16     5     7    1
    17     7     8    1
    18     7     9    1
    19     7    16    1
    20     9    10    1
    21     9    11    1
    22    11    12    1
    23    11    34    1
    24    11    35    1
    25    12    13    1
    26    12    36    1
    27    12    37    1
    28    13    14    1
    29    13    15    1
    30    14    38    1
    31    14    39    1
    32    14    40    1
    33    15    41    1
    34    16    17    1
    35    16    42    1
    36    16    43    1
    37    17    18    1
    38    17    44    1
    39    17    45    1
    40    18    19    1
    41    18    25    1
    42    18    20    1
    43    20    21    1
    44    20    26    1
    45    21    22    1
    46    21    46    1
    47    21    47    1
    48    22    23    1
    49    23    24    2
    50    23    25    1
    51    25    48    1
    52    25    49    1
    53    26    50    1
    54    26    51    1
    55    26    52    1
