@<TRIPOS>MOLECULE
ZINC15111010
 56 56 0 0 0
SMALL
GASTEIGER

@<TRIPOS>ATOM
      1 C          -3.1126    7.9286   -4.1141 C.3     1  UNL1       -0.0653
      2 C          -2.2725    7.4362   -2.9340 C.3     1  UNL1       -0.0559
      3 C          -2.3603    5.9113   -2.8465 C.3     1  UNL1       -0.0532
      4 C          -1.5202    5.4189   -1.6664 C.3     1  UNL1       -0.0504
      5 C          -1.6081    3.8939   -1.5789 C.3     1  UNL1       -0.0232
      6 C          -0.7680    3.4016   -0.3988 C.3     1  UNL1        0.0734
      7 H          -1.0881    3.9083    0.5116 H       1  UNL1        0.0637
      8 C          -0.9516    1.9146   -0.2371 C.2     1  UNL1       -0.0595
      9 C           0.0917    1.1224   -0.2319 C.2     1  UNL1       -0.0793
     10 C          -0.0919   -0.3646   -0.0703 C.3     1  UNL1        0.0134
     11 H          -1.1498   -0.6109    0.0216 H       1  UNL1        0.0375
     12 C           0.5425   -1.1244   -1.2629 C.3     1  UNL1        0.0688
     13 H          -0.1607   -1.2006   -2.0922 H       1  UNL1        0.0603
     14 C           0.8299   -2.5190   -0.6492 C.3     1  UNL1        0.0327
     15 C           1.2686   -2.2256    0.7745 C.2     1  UNL1        0.1398
     16 O           1.9509   -2.9355    1.4738 O.2     1  UNL1       -0.2970
     17 C           0.6926   -0.8776    1.1550 C.3     1  UNL1        0.0296
     18 H           1.4184   -0.2281    1.3819 H       1  UNL1        0.0387
     19 C          -0.2482   -1.0301    2.3519 C.3     1  UNL1       -0.0246
     20 C           0.5492   -1.4129    3.5721 C.2     1  UNL1       -0.0873
     21 C           0.4279   -0.7206    4.6775 C.2     1  UNL1       -0.0879
     22 C          -0.6272    0.3501    4.7842 C.3     1  UNL1       -0.0344
     23 C          -1.4856    0.0985    6.0254 C.3     1  UNL1       -0.0445
     24 C          -2.5568    1.1855    6.1337 C.3     1  UNL1       -0.0129
     25 C          -3.4023    0.9376    7.3563 C.2     1  UNL1        0.0418
     26 O          -3.1717   -0.0111    8.0680 O.co2   1  UNL1       -0.5498
     27 O           1.7555   -0.4943   -1.6795 O.3     1  UNL1       -0.3908
     28 O           0.6106    3.6874   -0.6433 O.3     1  UNL1       -0.3878
     29 H          -2.7348    7.4893   -5.0374 H       1  UNL1        0.0230
     30 H          -4.1515    7.6322   -3.9693 H       1  UNL1        0.0230
     31 H          -3.0501    9.0150   -4.1764 H       1  UNL1        0.0230
     32 H          -2.6503    7.8755   -2.0107 H       1  UNL1        0.0263
     33 H          -1.2336    7.7326   -3.0788 H       1  UNL1        0.0263
     34 H          -1.9825    5.4720   -3.7698 H       1  UNL1        0.0265
     35 H          -3.3992    5.6149   -2.7017 H       1  UNL1        0.0265
     36 H          -1.8981    5.8581   -0.7431 H       1  UNL1        0.0266
     37 H          -0.4814    5.7153   -1.8112 H       1  UNL1        0.0266
     38 H          -1.2302    3.4547   -2.5022 H       1  UNL1        0.0293
     39 H          -2.6469    3.5975   -1.4341 H       1  UNL1        0.0293
     40 H          -1.9435    1.5019   -0.1256 H       1  UNL1        0.0594
     41 H           1.0832    1.5346   -0.3479 H       1  UNL1        0.0574
     42 H           1.5425   -2.9767   -1.1809 H       1  UNL1        0.0367
     43 H          -0.0736   -3.1288   -0.6511 H       1  UNL1        0.0367
     44 H          -0.7602   -0.0852    2.5343 H       1  UNL1        0.0314
     45 H          -0.9832   -1.8066    2.1398 H       1  UNL1        0.0314
     46 H           1.2205   -2.2581    3.5351 H       1  UNL1        0.0569
     47 H           1.0841   -0.9172    5.5125 H       1  UNL1        0.0569
     48 H          -0.1479    1.3257    4.8656 H       1  UNL1        0.0307
     49 H          -1.2581    0.3283    3.8956 H       1  UNL1        0.0307
     50 H          -1.9649   -0.8771    5.9440 H       1  UNL1        0.0272
     51 H          -0.8547    0.1203    6.9140 H       1  UNL1        0.0272
     52 H          -2.0774    2.1611    6.2151 H       1  UNL1        0.0325
     53 H          -3.1877    1.1637    5.2451 H       1  UNL1        0.0325
     54 H           2.1909   -0.9325   -2.4234 H       1  UNL1        0.2098
     55 H           0.9640    3.2680   -1.4398 H       1  UNL1        0.2102
     56 O          -4.4114    1.7709    7.6546 O.co2   1  UNL1       -0.5498
@<TRIPOS>UNITY_ATOM_ATTR
56 1
charge -1
@<TRIPOS>BOND
     1     1     2    1
     2     1    29    1
     3     1    30    1
     4     1    31    1
     5     2     3    1
     6     2    32    1
     7     2    33    1
     8     3     4    1
     9     3    34    1
    10     3    35    1
    11     4     5    1
    12     4    36    1
    13     4    37    1
    14     5     6    1
    15     5    38    1
    16     5    39    1
    17     6     7    1
    18     6     8    1
    19     6    28    1
    20     8     9    2
    21     8    40    1
    22     9    10    1
    23     9    41    1
    24    10    11    1
    25    10    17    1
    26    10    12    1
    27    12    13    1
    28    12    14    1
    29    12    27    1
    30    14    15    1
    31    14    42    1
    32    14    43    1
    33    15    16    2
    34    15    17    1
    35    17    18    1
    36    17    19    1
    37    19    20    1
    38    19    44    1
    39    19    45    1
    40    20    21    2
    41    20    46    1
    42    21    22    1
    43    21    47    1
    44    22    23    1
    45    22    48    1
    46    22    49    1
    47    23    24    1
    48    23    50    1
    49    23    51    1
    50    24    25    1
    51    24    52    1
    52    24    53    1
    53    25    26   ar
    54    25    56   ar
    55    27    54    1
    56    28    55    1
