@<TRIPOS>MOLECULE
ZINC03830858
 61 64 0 0 0
SMALL
GASTEIGER

@<TRIPOS>ATOM
      1 C           4.3213    3.8837   -3.9745 C.3     1  UNL1        0.0332
      2 C           4.4949    3.1313   -2.6804 C.2     1  UNL1        0.3043
      3 O           5.3527    3.4652   -1.8978 O.2     1  UNL1       -0.2512
      4 O           3.6965    2.0900   -2.3972 O.3     1  UNL1       -0.4570
      5 C           3.9207    1.4122   -1.1328 C.3     1  UNL1        0.1530
      6 C           2.9380    0.2787   -0.9893 C.2     1  UNL1        0.2022
      7 O           2.1319    0.0643   -1.8625 O.2     1  UNL1       -0.2907
      8 C           2.9614   -0.5871    0.2439 C.3     1  UNL1        0.1326
      9 C           2.3249   -1.9593   -0.0577 C.3     1  UNL1       -0.0161
     10 C           1.1007   -2.0882    0.8751 C.3     1  UNL1       -0.0462
     11 C           0.7166   -0.6118    1.1911 C.3     1  UNL1       -0.0266
     12 H           0.1108   -0.5145    2.0921 H       1  UNL1        0.0311
     13 C           2.1006    0.0411    1.3478 C.3     1  UNL1        0.0094
     14 C           2.0514    1.5496    1.2607 C.3     1  UNL1       -0.0151
     15 C           1.3641    2.0001   -0.0269 C.3     1  UNL1        0.0907
     16 H           1.9137    1.6188   -0.8875 H       1  UNL1        0.0625
     17 C          -0.0658    1.4435   -0.0414 C.3     1  UNL1        0.1492
     18 C          -0.0069   -0.0781   -0.0498 C.3     1  UNL1       -0.0000
     19 H           0.5296   -0.4063   -0.9400 H       1  UNL1        0.0335
     20 C          -1.4126   -0.6767   -0.0870 C.3     1  UNL1       -0.0432
     21 C          -2.1560   -0.2236   -1.3405 C.3     1  UNL1       -0.0304
     22 C          -1.3105    0.7930   -2.0834 C.2     1  UNL1       -0.0572
     23 C          -1.1072    0.6065   -3.3862 C.2     1  UNL1       -0.0194
     24 C          -0.3145    1.5786   -4.1480 C.2     1  UNL1        0.1561
     25 O           0.2264    1.2853   -5.1937 O.2     1  UNL1       -0.2927
     26 C          -0.2090    2.9702   -3.5544 C.3     1  UNL1        0.0107
     27 C           0.2134    2.8142   -2.0948 C.3     1  UNL1       -0.0339
     28 C          -0.7624    1.9534   -1.3112 C.3     1  UNL1        0.0263
     29 C          -1.9330    2.8434   -0.8884 C.3     1  UNL1       -0.0528
     30 F          -0.7528    1.8815    1.0958 F       1  UNL1       -0.2380
     31 O           1.3234    3.4277   -0.0744 O.3     1  UNL1       -0.3886
     32 C           2.6904   -0.3617    2.7009 C.3     1  UNL1       -0.0562
     33 O           4.3045   -0.7553    0.7019 O.3     1  UNL1       -0.3804
     34 H           3.5053    3.4409   -4.5457 H       1  UNL1        0.0342
     35 H           4.0903    4.9271   -3.7600 H       1  UNL1        0.0342
     36 H           5.2428    3.8273   -4.5540 H       1  UNL1        0.0342
     37 H           3.7952    2.0594   -0.3809 H       1  UNL1        0.0779
     38 H           4.9366    1.0179   -1.1071 H       1  UNL1        0.0779
     39 H           2.0075   -2.0034   -1.0995 H       1  UNL1        0.0297
     40 H           3.0392   -2.7563    0.1493 H       1  UNL1        0.0297
     41 H           1.3699   -2.6177    1.7890 H       1  UNL1        0.0269
     42 H           0.2822   -2.5957    0.3645 H       1  UNL1        0.0269
     43 H           1.5004    1.9401    2.1163 H       1  UNL1        0.0297
     44 H           3.0678    1.9429    1.2797 H       1  UNL1        0.0297
     45 H          -1.3402   -1.7643   -0.0854 H       1  UNL1        0.0272
     46 H          -1.9649   -0.3521    0.7949 H       1  UNL1        0.0272
     47 H          -2.3412   -1.0833   -1.9846 H       1  UNL1        0.0310
     48 H          -3.1054    0.2305   -1.0565 H       1  UNL1        0.0310
     49 H          -1.5251   -0.2579   -3.8809 H       1  UNL1        0.0652
     50 H           0.4698    3.4992   -4.0637 H       1  UNL1        0.0345
     51 H          -1.1757    3.4708   -3.6099 H       1  UNL1        0.0345
     52 H           1.2007    2.3539   -2.0586 H       1  UNL1        0.0279
     53 H           0.2648    3.8002   -1.6331 H       1  UNL1        0.0279
     54 H          -1.5581    3.6832   -0.3034 H       1  UNL1        0.0239
     55 H          -2.4437    3.2178   -1.7756 H       1  UNL1        0.0239
     56 H          -2.6311    2.2632   -0.2850 H       1  UNL1        0.0239
     57 H           2.1950    3.8465   -0.0682 H       1  UNL1        0.2099
     58 H           2.7882   -1.4463    2.7462 H       1  UNL1        0.0236
     59 H           3.6720    0.0970    2.8204 H       1  UNL1        0.0236
     60 H           2.0312   -0.0226    3.5000 H       1  UNL1        0.0236
     61 H           4.8971   -1.1487    0.0468 H       1  UNL1        0.2108
@<TRIPOS>BOND
     1     1     2    1
     2     1    34    1
     3     1    35    1
     4     1    36    1
     5     2     3    2
     6     2     4    1
     7     4     5    1
     8     5     6    1
     9     5    37    1
    10     5    38    1
    11     6     7    2
    12     6     8    1
    13     8    13    1
    14     8     9    1
    15     8    33    1
    16     9    10    1
    17     9    39    1
    18     9    40    1
    19    10    11    1
    20    10    41    1
    21    10    42    1
    22    11    12    1
    23    11    18    1
    24    11    13    1
    25    13    14    1
    26    13    32    1
    27    14    15    1
    28    14    43    1
    29    14    44    1
    30    15    16    1
    31    15    17    1
    32    15    31    1
    33    17    28    1
    34    17    18    1
    35    17    30    1
    36    18    19    1
    37    18    20    1
    38    20    21    1
    39    20    45    1
    40    20    46    1
    41    21    22    1
    42    21    47    1
    43    21    48    1
    44    22    28    1
    45    22    23    2
    46    23    24    1
    47    23    49    1
    48    24    25    2
    49    24    26    1
    50    26    27    1
    51    26    50    1
    52    26    51    1
    53    27    28    1
    54    27    52    1
    55    27    53    1
    56    28    29    1
    57    29    54    1
    58    29    55    1
    59    29    56    1
    60    31    57    1
    61    32    58    1
    62    32    59    1
    63    32    60    1
    64    33    61    1
