@<TRIPOS>MOLECULE
ZINC03830500
 41 43 0 0 0
SMALL
GASTEIGER

@<TRIPOS>ATOM
      1 C           5.2940   -0.9651    1.3837 C.3     1  UNL1       -0.0409
      2 C           3.9776   -0.7219    0.6916 C.2     1  UNL1       -0.0396
      3 CA          2.8976   -1.0655    1.3734 C.2     1  UNL1        0.0596
      4 N           1.6121   -0.8349    0.8454 N.am    1  UNL1       -0.2534
      5 C           1.2816   -0.6036   -0.6011 C.3     1  UNL1        0.1041
      6 H           1.1745   -1.4883   -1.2287 H       1  UNL1        0.0644
      7 CA         -0.0032   -0.0412   -0.0152 C.3     1  UNL1        0.1285
      8 HA         -0.9023   -0.4818   -0.4460 H       1  UNL1        0.0622
      9 C           0.3738   -0.6385    1.3224 C.2     1  UNL1        0.2438
     10 O          -0.1967   -0.8490    2.3718 O.2     1  UNL1       -0.2731
     11 N          -0.0429    1.4232   -0.0053 N.am    1  UNL1       -0.2968
     12 C          -1.2279    2.0652   -0.0028 C.2     1  UNL1        0.2665
     13 O          -2.2614    1.4305   -0.0089 O.2     1  UNL1       -0.2692
     14 CA         -1.2688    3.5716    0.0075 C.3     1  UNL1        0.0789
     15 HA         -0.4928    3.9516    0.6720 H       1  UNL1        0.1002
     16 C          -1.0335    4.0900   -1.3878 C.ar    1  UNL1        0.0091
     17 C          -2.0669    4.0973   -2.3059 C.ar    1  UNL1       -0.0528
     18 C          -1.8523    4.5774   -3.5843 C.ar    1  UNL1       -0.0613
     19 C          -0.6016    5.0403   -3.9479 C.ar    1  UNL1       -0.0617
     20 C           0.4332    5.0281   -3.0314 C.ar    1  UNL1       -0.0613
     21 C           0.2173    4.5530   -1.7514 C.ar    1  UNL1       -0.0528
     22 S           2.4886    0.6360   -1.1804 S.3     1  UNL1       -0.1312
     23 C           4.0630   -0.1237   -0.6749 C.3     1  UNL1        0.0184
     24 C           3.0404   -1.6953    2.6985 C.2     1  UNL1        0.0859
     25 O           2.0559   -1.9156    3.3757 O.co2   1  UNL1       -0.5433
     26 H           5.4381   -2.0364    1.5244 H       1  UNL1        0.0275
     27 H           6.1045   -0.5666    0.7733 H       1  UNL1        0.0275
     28 H           5.2917   -0.4683    2.3539 H       1  UNL1        0.0275
     29 H           0.7837    1.9308   -0.0044 H       1  UNL1        0.1497
     30 H          -3.0430    3.7315   -2.0232 H       1  UNL1        0.0622
     31 H          -2.6607    4.5866   -4.3005 H       1  UNL1        0.0618
     32 H          -0.4327    5.4113   -4.9480 H       1  UNL1        0.0618
     33 H           1.4105    5.3895   -3.3155 H       1  UNL1        0.0618
     34 H           1.0258    4.5431   -1.0355 H       1  UNL1        0.0622
     35 H1         -2.6151    5.0280    0.5595 H       1  UNL1        0.2005
     36 H2         -3.3207    3.6829   -0.1178 H       1  UNL1        0.2005
     37 H           4.8428    0.6379   -0.6810 H       1  UNL1        0.0423
     38 H           4.3244   -0.9048   -1.3888 H       1  UNL1        0.0423
     39 N          -2.5844    4.0113    0.5048 N.4     1  UNL1        0.2307
     40 H3         -2.7388    3.6206    1.4417 H       1  UNL1        0.2005
     41 OXT         4.2629   -2.0268    3.1589 O.co2   1  UNL1       -0.5433
@<TRIPOS>UNITY_ATOM_ATTR
39 1
charge 1
41 1
charge -1
@<TRIPOS>BOND
     1     1     2    1
     2     1    26    1
     3     1    27    1
     4     1    28    1
     5     2    23    1
     6     2     3    2
     7     3     4    1
     8     3    24    1
     9     4     9   am
    10     4     5    1
    11     5     6    1
    12     5     7    1
    13     5    22    1
    14     7     8    1
    15     7     9    1
    16     7    11    1
    17     9    10    2
    18    11    12   am
    19    11    29    1
    20    12    13    2
    21    12    14    1
    22    14    15    1
    23    14    16    1
    24    14    39    1
    25    16    21   ar
    26    16    17   ar
    27    17    18   ar
    28    17    30    1
    29    18    19   ar
    30    18    31    1
    31    19    20   ar
    32    19    32    1
    33    20    21   ar
    34    20    33    1
    35    21    34    1
    36    22    23    1
    37    23    37    1
    38    23    38    1
    39    24    25   ar
    40    24    41   ar
    41    35    39    1
    42    36    39    1
    43    39    40    1
