@<TRIPOS>MOLECULE
ZINC02025687
 29 28 0 0 0
SMALL
GASTEIGER

@<TRIPOS>ATOM
      1 C          -2.4056    0.2921   -1.7648 C.3     1  UNL1       -0.0385
      2 C          -2.1159    1.6517   -1.1258 C.3     1  UNL1        0.0616
      3 H          -2.4685    1.6510   -0.0944 H       1  UNL1        0.0595
      4 C          -2.8380    2.7485   -1.9109 C.3     1  UNL1        0.0017
      5 C          -2.6510    4.0910   -1.2013 C.3     1  UNL1        0.0629
      6 C          -3.4746    5.1645   -1.9156 C.3     1  UNL1       -0.0363
      7 C          -3.1198    3.9703    0.2501 C.3     1  UNL1       -0.0363
      8 O          -1.2694    4.4550   -1.2270 O.3     1  UNL1       -0.3890
      9 O          -0.7084    1.8982   -1.1478 O.3     1  UNL1       -0.3445
     10 C          -0.0173    1.4248    0.0099 C.3     1  UNL1        0.2040
     11 H          -0.5275    1.7763    0.9067 H       1  UNL1        0.0952
     12 C           1.4181    1.9544   -0.0010 C.3     1  UNL1        0.2406
     13 CL          2.2620    1.3729   -1.4844 Cl      1  UNL1       -0.0780
     14 CL          1.3936    3.7572    0.0089 Cl      1  UNL1       -0.0780
     15 CL          2.2901    1.3571    1.4597 Cl      1  UNL1       -0.0780
     16 O           0.0021   -0.0041    0.0020 O.3     1  UNL1       -0.3638
     17 H          -3.4791    0.1041   -1.7480 H       1  UNL1        0.0255
     18 H          -2.0530    0.2928   -2.7962 H       1  UNL1        0.0255
     19 H          -1.8911   -0.4893   -1.2055 H       1  UNL1        0.0255
     20 H          -2.4230    2.8084   -2.9170 H       1  UNL1        0.0318
     21 H          -3.9008    2.5135   -1.9697 H       1  UNL1        0.0318
     22 H          -4.5285    4.8869   -1.8961 H       1  UNL1        0.0257
     23 H          -3.3414    6.1210   -1.4101 H       1  UNL1        0.0257
     24 H          -3.1407    5.2505   -2.9496 H       1  UNL1        0.0257
     25 H          -2.5331    3.2056    0.7590 H       1  UNL1        0.0257
     26 H          -2.9866    4.9268    0.7557 H       1  UNL1        0.0257
     27 H          -4.1736    3.6927    0.2697 H       1  UNL1        0.0257
     28 H          -1.0766    5.2978   -0.7938 H       1  UNL1        0.2101
     29 H           0.4417   -0.3872   -0.7693 H       1  UNL1        0.2126
@<TRIPOS>BOND
     1     1     2    1
     2     1    17    1
     3     1    18    1
     4     1    19    1
     5     2     3    1
     6     2     4    1
     7     2     9    1
     8     4     5    1
     9     4    20    1
    10     4    21    1
    11     5     6    1
    12     5     7    1
    13     5     8    1
    14     6    22    1
    15     6    23    1
    16     6    24    1
    17     7    25    1
    18     7    26    1
    19     7    27    1
    20     8    28    1
    21     9    10    1
    22    10    11    1
    23    10    12    1
    24    10    16    1
    25    12    13    1
    26    12    14    1
    27    12    15    1
    28    16    29    1
