@<TRIPOS>MOLECULE
ZINC02008250
 54 57 0 0 0
SMALL
GASTEIGER

@<TRIPOS>ATOM
      1 C          -3.5560    0.0317   -8.2737 C.3     1  UNL1       -0.0486
      2 C          -3.5412    0.2175   -6.7551 C.3     1  UNL1        0.0366
      3 CA         -3.0607   -1.0716   -6.0230 C.3     1  UNL1        0.0807
      4 HA         -2.2617   -1.5372   -6.6000 H       1  UNL1        0.0576
      5 N          -2.5631   -0.7351   -4.6892 N.am    1  UNL1       -0.2761
      6 C          -1.8365    0.5549   -4.5932 C.3     1  UNL1        0.1003
      7 H          -0.7910    0.5219   -4.2868 H       1  UNL1        0.0640
      8 S          -2.1794    1.3480   -6.2198 S.3     1  UNL1       -0.1275
      9 CA         -2.8594    0.9436   -3.5159 C.3     1  UNL1        0.1277
     10 HA         -3.5199    1.7580   -3.8132 H       1  UNL1        0.0622
     11 C          -3.4632   -0.4314   -3.7121 C.2     1  UNL1        0.2401
     12 O          -4.3866   -1.0276   -3.1994 O.2     1  UNL1       -0.2734
     13 N          -2.2697    1.1432   -2.1898 N.am    1  UNL1       -0.2999
     14 C          -2.9000    1.9136   -1.2811 C.2     1  UNL1        0.2386
     15 O          -3.9553    2.4415   -1.5612 O.2     1  UNL1       -0.2734
     16 CA         -2.2934    2.1189    0.0831 C.3     1  UNL1        0.1261
     17 HA         -2.1876    1.1558    0.5824 H       1  UNL1        0.0646
     18 C          -0.9379    2.7615   -0.0614 C.ar    1  UNL1       -0.0184
     19 C           0.2054    1.9885    0.0176 C.ar    1  UNL1       -0.0563
     20 C           1.4485    2.5770   -0.1206 C.ar    1  UNL1       -0.0614
     21 C           1.5486    3.9393   -0.3326 C.ar    1  UNL1       -0.0617
     22 C           0.4055    4.7132   -0.4059 C.ar    1  UNL1       -0.0614
     23 C          -0.8376    4.1247   -0.2677 C.ar    1  UNL1       -0.0563
     24 N          -3.1636    2.9884    0.8786 N.am    1  UNL1       -0.2836
     25 C          -3.1325    2.9236    2.2245 C.2     1  UNL1        0.3106
     26 O          -2.3194    2.2112    2.7800 O.2     1  UNL1       -0.2521
     27 N          -4.0031    3.6488    2.9544 N.am    1  UNL1       -0.2084
     28 C          -5.0950    4.4696    2.4099 C.3     1  UNL1        0.0409
     29 C          -5.7672    5.0671    3.6613 C.3     1  UNL1        0.0294
     30 N          -4.9768    4.5268    4.7775 N.am    1  UNL1       -0.2974
     31 C          -4.0075    3.7410    4.2907 C.2     1  UNL1        0.3098
     32 O          -3.2049    3.1635    4.9975 O.2     1  UNL1       -0.2522
     33 C          -4.2132   -2.0345   -5.8982 C.2     1  UNL1        0.0635
     34 O          -4.4526   -2.5557   -4.8348 O.co2   1  UNL1       -0.5478
     35 C          -4.9021    0.6866   -6.2366 C.3     1  UNL1       -0.0486
     36 H          -4.2318   -0.7831   -8.5334 H       1  UNL1        0.0244
     37 H          -3.8965    0.9516   -8.7490 H       1  UNL1        0.0244
     38 H          -2.5503   -0.2058   -8.6205 H       1  UNL1        0.0244
     39 H          -1.4256    0.7210   -1.9657 H       1  UNL1        0.1496
     40 H           0.1272    0.9240    0.1829 H       1  UNL1        0.0621
     41 H           2.3416    1.9723   -0.0633 H       1  UNL1        0.0618
     42 H           2.5199    4.3991   -0.4406 H       1  UNL1        0.0618
     43 H           0.4837    5.7776   -0.5708 H       1  UNL1        0.0618
     44 H          -1.7307    4.7294   -0.3246 H       1  UNL1        0.0621
     45 H          -3.7622    3.6108    0.4367 H       1  UNL1        0.1513
     46 H          -4.6984    5.2596    1.7721 H       1  UNL1        0.0486
     47 H          -5.8013    3.8494    1.8579 H       1  UNL1        0.0486
     48 H          -6.8050    4.7421    3.7348 H       1  UNL1        0.0478
     49 H          -5.7065    6.1552    3.6409 H       1  UNL1        0.0478
     50 H          -5.1327    4.7104    5.7172 H       1  UNL1        0.1503
     51 H          -4.8299    0.9033   -5.1708 H       1  UNL1        0.0244
     52 H          -5.2036    1.5876   -6.7709 H       1  UNL1        0.0244
     53 H          -5.6424   -0.0968   -6.3988 H       1  UNL1        0.0244
     54 OXT        -4.9738   -2.3132   -6.9685 O.co2   1  UNL1       -0.5478
@<TRIPOS>UNITY_ATOM_ATTR
54 1
charge -1
@<TRIPOS>BOND
     1     1     2    1
     2     1    36    1
     3     1    37    1
     4     1    38    1
     5     2     8    1
     6     2     3    1
     7     2    35    1
     8     3     4    1
     9     3     5    1
    10     3    33    1
    11     5    11   am
    12     5     6    1
    13     6     7    1
    14     6     8    1
    15     6     9    1
    16     9    10    1
    17     9    11    1
    18     9    13    1
    19    11    12    2
    20    13    14   am
    21    13    39    1
    22    14    15    2
    23    14    16    1
    24    16    17    1
    25    16    18    1
    26    16    24    1
    27    18    23   ar
    28    18    19   ar
    29    19    20   ar
    30    19    40    1
    31    20    21   ar
    32    20    41    1
    33    21    22   ar
    34    21    42    1
    35    22    23   ar
    36    22    43    1
    37    23    44    1
    38    24    25   am
    39    24    45    1
    40    25    26    2
    41    25    27   am
    42    27    31   am
    43    27    28    1
    44    28    29    1
    45    28    46    1
    46    28    47    1
    47    29    30    1
    48    29    48    1
    49    29    49    1
    50    30    31   am
    51    30    50    1
    52    31    32    2
    53    33    34   ar
    54    33    54   ar
    55    35    51    1
    56    35    52    1
    57    35    53    1
