@<TRIPOS>MOLECULE
ZINC03831502
 31 33 0 0 0
SMALL
GASTEIGER

@<TRIPOS>ATOM
      1 C          -2.1491    1.1517    1.1564 C.3     1  UNL1       -0.0360
      2 C          -0.6746    1.5537    1.2292 C.3     1  UNL1        0.1300
      3 C          -0.0171    1.0867    2.5629 C.3     1  UNL1        0.0936
      4 H           1.0675    1.1042    2.4563 H       1  UNL1        0.0585
      5 N          -0.4101    1.9755    3.6565 N.am    1  UNL1       -0.2685
      6 C          -0.5753    3.3962    3.2978 C.3     1  UNL1        0.1535
      7 H           0.1022    4.0975    3.7849 H       1  UNL1        0.0750
      8 S          -0.4760    3.3781    1.4576 S.O2    1  UNL1       -0.0024
      9 O           0.8303    3.7637    1.0527 O.2     1  UNL1       -0.1719
     10 O          -1.6079    4.0461    0.9173 O.2     1  UNL1       -0.1719
     11 C          -2.0122    3.3716    3.8165 C.3     1  UNL1        0.0629
     12 C          -1.6681    1.9412    4.1343 C.2     1  UNL1        0.2210
     13 O          -2.3114    1.0521    4.6505 O.2     1  UNL1       -0.2754
     14 C          -0.4638   -0.3185    2.8744 C.2     1  UNL1        0.0644
     15 O          -0.9350   -0.5767    3.9566 O.co2   1  UNL1       -0.5478
     16 C           0.1021    1.0500    0.0111 C.3     1  UNL1        0.0701
     17 N          -0.5571    1.5113   -1.2133 N.ar    1  UNL1       -0.2496
     18 C           0.0245    2.2214   -2.2075 C.ar    1  UNL1        0.0455
     19 C          -0.9386    2.4293   -3.1355 C.ar    1  UNL1        0.0693
     20 N          -2.0496    1.8506   -2.6661 N.ar    1  UNL1       -0.1380
     21 N          -1.7904    1.3155   -1.5255 N.ar    1  UNL1       -0.0657
     22 H          -2.2286    0.0648    1.1334 H       1  UNL1        0.0252
     23 H          -2.6741    1.5360    2.0309 H       1  UNL1        0.0252
     24 H          -2.5949    1.5678    0.2530 H       1  UNL1        0.0252
     25 H          -2.1847    3.9975    4.6920 H       1  UNL1        0.0393
     26 H          -2.7712    3.4900    3.0431 H       1  UNL1        0.0393
     27 H           0.1276   -0.0397    0.0215 H       1  UNL1        0.0532
     28 H           1.1203    1.4376    0.0437 H       1  UNL1        0.0532
     29 H           1.0511    2.5538   -2.2524 H       1  UNL1        0.0842
     30 H          -0.8321    2.9613   -4.0693 H       1  UNL1        0.0864
     31 O          -0.3382   -1.2832    1.9496 O.co2   1  UNL1       -0.5478
@<TRIPOS>UNITY_ATOM_ATTR
31 1
charge -1
@<TRIPOS>BOND
     1     1     2    1
     2     1    22    1
     3     1    23    1
     4     1    24    1
     5     2     8    1
     6     2     3    1
     7     2    16    1
     8     3     4    1
     9     3     5    1
    10     3    14    1
    11     5    12   am
    12     5     6    1
    13     6     7    1
    14     6     8    1
    15     6    11    1
    16     8     9    2
    17     8    10    2
    18    11    12    1
    19    11    25    1
    20    11    26    1
    21    12    13    2
    22    14    15   ar
    23    14    31   ar
    24    16    17    1
    25    16    27    1
    26    16    28    1
    27    17    21   ar
    28    17    18   ar
    29    18    19   ar
    30    18    29    1
    31    19    20   ar
    32    19    30    1
    33    20    21   ar
