@<TRIPOS>MOLECULE
ZINC12318391
 54 57 0 0 0
SMALL
GASTEIGER

@<TRIPOS>ATOM
      1 C          -0.1809    5.2938    0.0287 C.3     1  UNL1       -0.0552
      2 C           0.1620    4.1077    0.9455 C.3     1  UNL1       -0.0005
      3 C          -1.0636    3.2112    0.9477 C.3     1  UNL1       -0.0363
      4 C          -1.0982    2.2641   -0.2446 C.3     1  UNL1        0.0107
      5 C           0.1964    1.4758   -0.2529 C.2     1  UNL1        0.1561
      6 O           0.2120    0.2656   -0.3222 O.2     1  UNL1       -0.2927
      7 C           1.4317    2.2640   -0.1658 C.2     1  UNL1       -0.0194
      8 C           1.3994    3.4733    0.3897 C.2     1  UNL1       -0.0597
      9 C           2.7014    4.2525    0.4779 C.3     1  UNL1       -0.0305
     10 C           2.8978    4.6178    1.9602 C.3     1  UNL1       -0.0456
     11 C           1.7247    5.4743    2.4170 C.3     1  UNL1       -0.0270
     12 H           1.6424    6.3428    1.7277 H       1  UNL1        0.0311
     13 C           0.4141    4.6735    2.3310 C.3     1  UNL1        0.0297
     14 H          -0.3195    5.3098    2.5697 H       1  UNL1        0.0389
     15 C           0.4227    3.6299    3.4177 C.2     1  UNL1        0.1381
     16 O           0.3845    2.4541    3.1899 O.2     1  UNL1       -0.2971
     17 C           0.5089    4.1493    4.8560 C.3     1  UNL1        0.0148
     18 C           1.8038    4.9316    4.9317 C.3     1  UNL1        0.0134
     19 C           1.8509    5.9969    3.8217 C.3     1  UNL1       -0.0286
     20 H           0.9998    6.7078    3.9823 H       1  UNL1        0.0310
     21 C           3.1336    6.7617    4.1805 C.3     1  UNL1       -0.0463
     22 C           3.0349    6.8744    5.7280 C.3     1  UNL1       -0.0162
     23 C           2.0201    5.7940    6.1871 C.3     1  UNL1        0.1318
     24 C           0.7459    6.4316    6.6577 C.2     1  UNL1        0.1902
     25 O          -0.1543    6.6293    5.8774 O.2     1  UNL1       -0.2919
     26 C           0.5897    6.8253    8.1039 C.3     1  UNL1        0.1052
     27 O          -0.7001    7.4076    8.3024 O.3     1  UNL1       -0.3874
     28 O           2.5941    4.9941    7.2223 O.3     1  UNL1       -0.3804
     29 C           2.9864    3.9551    4.8852 C.3     1  UNL1       -0.0559
     30 H          -0.3540    4.9316   -0.9847 H       1  UNL1        0.0238
     31 H          -1.0797    5.7890    0.3960 H       1  UNL1        0.0238
     32 H           0.6481    6.0016    0.0249 H       1  UNL1        0.0238
     33 H          -1.1034    2.6296    1.8638 H       1  UNL1        0.0278
     34 H          -1.9542    3.8482    0.9103 H       1  UNL1        0.0278
     35 H          -1.1918    2.7932   -1.0880 H       1  UNL1        0.0345
     36 H          -1.9431    1.5795   -0.1437 H       1  UNL1        0.0345
     37 H           2.3576    1.8637   -0.5477 H       1  UNL1        0.0652
     38 H           3.5283    3.6244    0.1529 H       1  UNL1        0.0310
     39 H           2.6510    5.1539   -0.1208 H       1  UNL1        0.0310
     40 H           3.8350    5.1517    2.0762 H       1  UNL1        0.0271
     41 H           2.9244    3.6683    2.4937 H       1  UNL1        0.0271
     42 H          -0.2844    4.7263    5.0501 H       1  UNL1        0.0348
     43 H           0.5312    3.3055    5.5450 H       1  UNL1        0.0348
     44 H           4.0248    6.2218    3.8792 H       1  UNL1        0.0269
     45 H           3.1195    7.7561    3.7279 H       1  UNL1        0.0269
     46 H           4.0079    6.6877    6.1795 H       1  UNL1        0.0297
     47 H           2.6722    7.8638    6.0050 H       1  UNL1        0.0297
     48 H           0.6819    6.0145    8.6819 H       1  UNL1        0.0637
     49 H           1.3600    7.5496    8.3685 H       1  UNL1        0.0637
     50 H          -0.8704    7.6854    9.2128 H       1  UNL1        0.2100
     51 H           2.7582    5.4745    8.0453 H       1  UNL1        0.2108
     52 H           2.8693    3.2828    4.0353 H       1  UNL1        0.0236
     53 H           3.9159    4.5149    4.7803 H       1  UNL1        0.0236
     54 H           3.0143    3.3741    5.8070 H       1  UNL1        0.0236
@<TRIPOS>BOND
     1     1     2    1
     2     1    30    1
     3     1    31    1
     4     1    32    1
     5     2     8    1
     6     2    13    1
     7     2     3    1
     8     3     4    1
     9     3    33    1
    10     3    34    1
    11     4     5    1
    12     4    35    1
    13     4    36    1
    14     5     6    2
    15     5     7    1
    16     7     8    2
    17     7    37    1
    18     8     9    1
    19     9    10    1
    20     9    38    1
    21     9    39    1
    22    10    11    1
    23    10    40    1
    24    10    41    1
    25    11    12    1
    26    11    19    1
    27    11    13    1
    28    13    14    1
    29    13    15    1
    30    15    16    2
    31    15    17    1
    32    17    18    1
    33    17    42    1
    34    17    43    1
    35    18    23    1
    36    18    19    1
    37    18    29    1
    38    19    20    1
    39    19    21    1
    40    21    22    1
    41    21    44    1
    42    21    45    1
    43    22    23    1
    44    22    46    1
    45    22    47    1
    46    23    24    1
    47    23    28    1
    48    24    25    2
    49    24    26    1
    50    26    27    1
    51    26    48    1
    52    26    49    1
    53    27    50    1
    54    28    51    1
    55    29    52    1
    56    29    53    1
    57    29    54    1
