@<TRIPOS>MOLECULE
ZINC03831090
 70 73 0 0 0
SMALL
GASTEIGER

@<TRIPOS>ATOM
      1 C          10.1244   -4.6542   -3.0855 C.3     1  UNL1       -0.0552
      2 C           8.8027   -4.2615   -2.4223 C.3     1  UNL1        0.0421
      3 C           8.2662   -3.0123   -3.0724 C.2     1  UNL1        0.3078
      4 O           8.8781   -2.4897   -3.9737 O.2     1  UNL1       -0.2508
      5 O           7.1084   -2.4802   -2.6502 O.3     1  UNL1       -0.4497
      6 C           6.6013   -1.3436   -3.3862 C.3     1  UNL1        0.1796
      7 C           7.5757   -0.1438   -3.2825 C.3     1  UNL1       -0.0048
      8 C           6.9617    0.8331   -2.2420 C.3     1  UNL1       -0.0453
      9 C           5.8826   -0.0166   -1.5567 C.3     1  UNL1       -0.0281
     10 H           6.3998   -0.7199   -0.8718 H       1  UNL1        0.0310
     11 C           5.3017   -0.8178   -2.7369 C.3     1  UNL1        0.0204
     12 C           4.3666   -1.8894   -2.2468 C.3     1  UNL1       -0.0168
     13 C           3.5149   -1.4035   -1.0591 C.3     1  UNL1        0.0600
     14 H           3.9435   -1.8033   -0.1353 H       1  UNL1        0.0596
     15 C           3.4425    0.1091   -0.9911 C.3     1  UNL1        0.0007
     16 H           3.0451    0.4845   -1.9498 H       1  UNL1        0.0340
     17 C           4.8345    0.7108   -0.7678 C.3     1  UNL1       -0.0308
     18 H           5.1226    0.5723    0.2887 H       1  UNL1        0.0308
     19 C           4.8122    2.2112   -1.0246 C.3     1  UNL1       -0.0432
     20 C           3.8536    2.9036   -0.0493 C.3     1  UNL1       -0.0212
     21 H           3.6515    3.9212   -0.4455 H       1  UNL1        0.0343
     22 C           2.5360    2.1605   -0.0174 C.2     1  UNL1       -0.0531
     23 C           1.4364    2.9070   -0.1150 C.2     1  UNL1       -0.0146
     24 C           0.1034    2.2917   -0.1816 C.2     1  UNL1        0.1787
     25 O          -0.8991    2.9747   -0.2961 O.2     1  UNL1       -0.2879
     26 C           0.0096    0.8234   -0.1125 C.2     1  UNL1       -0.0180
     27 C           1.1162    0.1023    0.0056 C.2     1  UNL1       -0.0701
     28 C           2.4959    0.6614    0.0671 C.3     1  UNL1        0.0133
     29 C           3.0030    0.2392    1.4463 C.3     1  UNL1       -0.0520
     30 C           4.4744    3.0674    1.3324 C.3     1  UNL1       -0.0587
     31 O           2.2054   -1.9648   -1.2309 O.3     1  UNL1       -0.3914
     32 C           4.6255    0.0746   -3.7793 C.3     1  UNL1       -0.0551
     33 C           6.3456   -1.6979   -4.8247 C.2     1  UNL1        0.2142
     34 O           6.4911   -0.8648   -5.6868 O.2     1  UNL1       -0.2895
     35 C           5.9077   -3.0926   -5.1909 C.3     1  UNL1        0.1542
     36 O           5.8402   -3.2149   -6.6362 O.3     1  UNL1       -0.4570
     37 C           5.4629   -4.4046   -7.1301 C.2     1  UNL1        0.3043
     38 O           5.1978   -5.3137   -6.3796 O.2     1  UNL1       -0.2512
     39 C           5.3699   -4.6065   -8.6206 C.3     1  UNL1        0.0332
     40 H          10.8449   -3.8448   -2.9672 H       1  UNL1        0.0235
     41 H          10.5125   -5.5577   -2.6153 H       1  UNL1        0.0235
     42 H           9.9575   -4.8397   -4.1465 H       1  UNL1        0.0235
     43 H           8.9697   -4.0759   -1.3613 H       1  UNL1        0.0375
     44 H           8.0823   -5.0708   -2.5406 H       1  UNL1        0.0375
     45 H           7.6656    0.3495   -4.2501 H       1  UNL1        0.0308
     46 H           8.5533   -0.4843   -2.9442 H       1  UNL1        0.0308
     47 H           6.5351    1.7054   -2.7294 H       1  UNL1        0.0270
     48 H           7.7203    1.1385   -1.5177 H       1  UNL1        0.0270
     49 H           3.6963   -2.1973   -3.0612 H       1  UNL1        0.0297
     50 H           4.9342   -2.7751   -1.9344 H       1  UNL1        0.0297
     51 H           4.4891    2.4031   -2.0490 H       1  UNL1        0.0274
     52 H           5.8186    2.6157   -0.8905 H       1  UNL1        0.0274
     53 H           1.5385    3.9853   -0.1464 H       1  UNL1        0.0656
     54 H          -0.9557    0.3374   -0.1575 H       1  UNL1        0.0653
     55 H           0.9923   -0.9675    0.0892 H       1  UNL1        0.0582
     56 H           2.9096   -0.8415    1.5526 H       1  UNL1        0.0241
     57 H           4.0493    0.5257    1.5521 H       1  UNL1        0.0241
     58 H           2.4115    0.7326    2.2176 H       1  UNL1        0.0241
     59 H           4.7616    2.0899    1.7199 H       1  UNL1        0.0235
     60 H           5.3567    3.7036    1.2613 H       1  UNL1        0.0235
     61 H           3.7491    3.5260    2.0046 H       1  UNL1        0.0235
     62 H           2.1908   -2.9315   -1.2468 H       1  UNL1        0.2098
     63 H           5.3773    0.6897   -4.2738 H       1  UNL1        0.0237
     64 H           4.1218   -0.5480   -4.5188 H       1  UNL1        0.0237
     65 H           3.8954    0.7180   -3.2882 H       1  UNL1        0.0237
     66 H           6.5657   -3.7539   -4.8307 H       1  UNL1        0.0780
     67 H           4.9244   -3.2886   -4.7634 H       1  UNL1        0.0780
     68 H           6.3293   -4.9582   -9.0001 H       1  UNL1        0.0342
     69 H           4.5994   -5.3457   -8.8398 H       1  UNL1        0.0342
     70 H           5.1138   -3.6617   -9.0999 H       1  UNL1        0.0342
@<TRIPOS>BOND
     1     1     2    1
     2     1    40    1
     3     1    41    1
     4     1    42    1
     5     2     3    1
     6     2    43    1
     7     2    44    1
     8     3     4    2
     9     3     5    1
    10     5     6    1
    11     6    11    1
    12     6     7    1
    13     6    33    1
    14     7     8    1
    15     7    45    1
    16     7    46    1
    17     8     9    1
    18     8    47    1
    19     8    48    1
    20     9    10    1
    21     9    17    1
    22     9    11    1
    23    11    12    1
    24    11    32    1
    25    12    13    1
    26    12    49    1
    27    12    50    1
    28    13    14    1
    29    13    15    1
    30    13    31    1
    31    15    16    1
    32    15    28    1
    33    15    17    1
    34    17    18    1
    35    17    19    1
    36    19    20    1
    37    19    51    1
    38    19    52    1
    39    20    21    1
    40    20    22    1
    41    20    30    1
    42    22    28    1
    43    22    23    2
    44    23    24    1
    45    23    53    1
    46    24    25    2
    47    24    26    1
    48    26    27    2
    49    26    54    1
    50    27    28    1
    51    27    55    1
    52    28    29    1
    53    29    56    1
    54    29    57    1
    55    29    58    1
    56    30    59    1
    57    30    60    1
    58    30    61    1
    59    31    62    1
    60    32    63    1
    61    32    64    1
    62    32    65    1
    63    33    34    2
    64    33    35    1
    65    35    36    1
    66    35    66    1
    67    35    67    1
    68    36    37    1
    69    37    38    2
    70    37    39    1
    71    39    68    1
    72    39    69    1
    73    39    70    1
