@<TRIPOS>MOLECULE
ZINC08101127
 100 105 0 0 0
SMALL
GASTEIGER

@<TRIPOS>ATOM
      1 C          -5.6525    1.6046    1.2121 C.3     1  UNL1       -0.0459
      2 C          -5.0065    1.1521   -0.0990 C.3     1  UNL1        0.0813
      3 C          -5.7797    0.0062   -0.7104 C.ar    1  UNL1        0.0472
      4 C          -7.0860   -0.1315   -1.1819 C.ar    1  UNL1       -0.0074
      5 C          -7.9959    0.9412   -1.1508 C.ar    1  UNL1       -0.0535
      6 C          -9.2612    0.7661   -1.6199 C.ar    1  UNL1       -0.0612
      7 C          -9.6723   -0.4627   -2.1329 C.ar    1  UNL1       -0.0612
      8 C          -8.8198   -1.5237   -2.1792 C.ar    1  UNL1       -0.0540
      9 C          -7.5064   -1.3830   -1.7045 C.ar    1  UNL1       -0.0172
     10 C          -6.5990   -2.4581   -1.7362 C.ar    1  UNL1       -0.0478
     11 C          -5.3355   -2.3037   -1.2731 C.ar    1  UNL1        0.0106
     12 C          -4.8958   -1.0654   -0.7487 C.ar    1  UNL1        0.2127
     13 N          -3.6891   -0.6988   -0.2400 N.2     1  UNL1       -0.1939
     14 C          -3.6407    0.5474    0.1578 C.2     1  UNL1        0.1946
     15 C          -2.5350    1.1987    0.7213 C.2     1  UNL1        0.0061
     16 C          -2.4896    2.5744    0.7544 C.2     1  UNL1       -0.0559
     17 C          -3.6779    3.3143    0.7506 C.2     1  UNL1       -0.0616
     18 C          -3.6403    4.6784    0.9362 C.2     1  UNL1       -0.0618
     19 C          -2.4304    5.3090    1.2535 C.2     1  UNL1       -0.0617
     20 C          -2.3921    6.6618    1.4320 C.2     1  UNL1       -0.0603
     21 C          -3.5687    7.4218    1.3030 C.2     1  UNL1       -0.0436
     22 C          -3.5307    8.7630    1.4799 C.2     1  UNL1        0.0209
     23 C          -2.3136    9.5974    1.8184 C.3     1  UNL1        0.0306
     24 C          -2.8451   11.0099    1.8948 C.ar    1  UNL1       -0.0072
     25 C          -2.2314   12.2392    2.1675 C.ar    1  UNL1       -0.0121
     26 C          -0.8551   12.3258    2.4421 C.ar    1  UNL1       -0.0537
     27 C          -0.2952   13.5382    2.7033 C.ar    1  UNL1       -0.0612
     28 C          -1.0657   14.6995    2.7030 C.ar    1  UNL1       -0.0612
     29 C          -2.4009   14.6546    2.4410 C.ar    1  UNL1       -0.0540
     30 C          -3.0148   13.4215    2.1669 C.ar    1  UNL1       -0.0175
     31 C          -4.3906   13.3339    1.8923 C.ar    1  UNL1       -0.0523
     32 C          -4.9588   12.1300    1.6311 C.ar    1  UNL1       -0.0395
     33 C          -4.1954   10.9473    1.6281 C.ar    1  UNL1        0.0384
     34 N          -4.5836    9.6313    1.3820 N.pl3   1  UNL1       -0.3025
     35 C          -5.9544    9.2262    1.0612 C.3     1  UNL1        0.0171
     36 C          -6.7081    8.9082    2.3541 C.3     1  UNL1       -0.0354
     37 C          -8.1398    8.4852    2.0190 C.3     1  UNL1       -0.0331
     38 C          -8.8935    8.1672    3.3120 C.3     1  UNL1        0.0547
     39 S         -10.5909    7.6656    2.9147 S.3     1  UNL1       -0.0806
     40 O         -11.3176    8.7691    2.3917 O.2     1  UNL1       -0.1853
     41 O         -10.5864    6.4155    2.2390 O.2     1  UNL1       -0.1853
     42 C          -1.7296    9.1709    3.1667 C.3     1  UNL1       -0.0505
     43 C          -1.2599    9.4803    0.7153 C.3     1  UNL1       -0.0505
     44 C          -2.5486   -1.6135   -0.1468 C.3     1  UNL1        0.1514
     45 C          -2.8629   -2.7192    0.8629 C.3     1  UNL1        0.0084
     46 C          -1.6260   -3.5985    1.0578 C.3     1  UNL1       -0.0288
     47 C          -1.9752   -4.7744    1.9723 C.3     1  UNL1        0.0549
     48 S          -0.5088   -5.8169    2.2034 S.3     1  UNL1       -0.0806
     49 O          -0.1680   -6.4598    0.9828 O.2     1  UNL1       -0.1853
     50 O           0.4753   -5.1181    2.9534 O.2     1  UNL1       -0.1853
     51 C          -4.9046    2.3185   -1.0838 C.3     1  UNL1       -0.0459
     52 H          -4.8810    1.9685    1.8906 H       1  UNL1        0.0243
     53 H          -6.3646    2.4045    1.0091 H       1  UNL1        0.0243
     54 H          -6.1721    0.7632    1.6705 H       1  UNL1        0.0243
     55 H          -7.6913    1.8995   -0.7568 H       1  UNL1        0.0624
     56 H          -9.9571    1.5917   -1.5945 H       1  UNL1        0.0618
     57 H         -10.6819   -0.5752   -2.4995 H       1  UNL1        0.0618
     58 H          -9.1530   -2.4698   -2.5796 H       1  UNL1        0.0624
     59 H          -6.9120   -3.4127   -2.1328 H       1  UNL1        0.0626
     60 H          -4.6523   -3.1396   -1.3051 H       1  UNL1        0.0683
     61 H          -1.7186    0.6214    1.1296 H       1  UNL1        0.0680
     62 H          -1.5371    3.0827    0.7833 H       1  UNL1        0.0620
     63 H          -4.6241    2.8154    0.6020 H       1  UNL1        0.0618
     64 H          -4.5437    5.2619    0.8371 H       1  UNL1        0.0618
     65 H          -1.5270    4.7255    1.3526 H       1  UNL1        0.0618
     66 H          -1.4584    7.1486    1.6723 H       1  UNL1        0.0618
     67 H          -4.5023    6.9351    1.0627 H       1  UNL1        0.0633
     68 H          -0.2454   11.4343    2.4462 H       1  UNL1        0.0624
     69 H           0.7622   13.6016    2.9136 H       1  UNL1        0.0618
     70 H          -0.5966   15.6493    2.9134 H       1  UNL1        0.0618
     71 H          -2.9853   15.5628    2.4443 H       1  UNL1        0.0624
     72 H          -4.9970   14.2276    1.8895 H       1  UNL1        0.0624
     73 H          -6.0170   12.0780    1.4218 H       1  UNL1        0.0636
     74 H          -6.4594   10.0371    0.5363 H       1  UNL1        0.0468
     75 H          -5.9324    8.3405    0.4262 H       1  UNL1        0.0468
     76 H          -6.2031    8.0973    2.8790 H       1  UNL1        0.0281
     77 H          -6.7302    9.7939    2.9891 H       1  UNL1        0.0281
     78 H          -8.6448    9.2960    1.4941 H       1  UNL1        0.0281
     79 H          -8.1177    7.5995    1.3841 H       1  UNL1        0.0281
     80 H          -8.3884    7.3563    3.8369 H       1  UNL1        0.0490
     81 H          -8.9155    9.0529    3.9469 H       1  UNL1        0.0490
     82 H          -1.4141    8.1290    3.1128 H       1  UNL1        0.0242
     83 H          -0.8711    9.7986    3.4056 H       1  UNL1        0.0242
     84 H          -2.4875    9.2814    3.9422 H       1  UNL1        0.0242
     85 H          -1.6877    9.8081   -0.2321 H       1  UNL1        0.0242
     86 H          -0.4031   10.1068    0.9632 H       1  UNL1        0.0242
     87 H          -0.9382    8.4424    0.6289 H       1  UNL1        0.0242
     88 H          -2.3579   -2.0573   -1.1239 H       1  UNL1        0.1031
     89 H          -1.6668   -1.0626    0.1804 H       1  UNL1        0.1031
     90 H          -3.1443   -2.2716    1.8161 H       1  UNL1        0.0327
     91 H          -3.6865   -3.3282    0.4902 H       1  UNL1        0.0327
     92 H          -1.2930   -3.9765    0.0912 H       1  UNL1        0.0282
     93 H          -0.8292   -3.0093    1.5117 H       1  UNL1        0.0282
     94 H          -2.3082   -4.3964    2.9389 H       1  UNL1        0.0490
     95 H          -2.7720   -5.3636    1.5184 H       1  UNL1        0.0490
     96 H          -5.2705    2.0023   -2.0607 H       1  UNL1        0.0243
     97 H          -5.5066    3.1524   -0.7229 H       1  UNL1        0.0243
     98 H          -3.8642    2.6319   -1.1696 H       1  UNL1        0.0243
     99 O         -11.2388    7.3770    4.2613 O.co2   1  UNL1       -0.7245
    100 O          -0.9690   -6.9418    3.1195 O.co2   1  UNL1       -0.7245
@<TRIPOS>UNITY_ATOM_ATTR
13 1
charge 1
99 1
charge -1
100 1
charge -1
@<TRIPOS>BOND
     1     1     2    1
     2     1    52    1
     3     1    53    1
     4     1    54    1
     5     2    14    1
     6     2     3    1
     7     2    51    1
     8     3    12   ar
     9     3     4   ar
    10     4     9   ar
    11     4     5   ar
    12     5     6   ar
    13     5    55    1
    14     6     7   ar
    15     6    56    1
    16     7     8   ar
    17     7    57    1
    18     8     9   ar
    19     8    58    1
    20     9    10   ar
    21    10    11   ar
    22    10    59    1
    23    11    12   ar
    24    11    60    1
    25    12    13    1
    26    13    14    2
    27    13    44    1
    28    14    15    1
    29    15    16    2
    30    15    61    1
    31    16    17    1
    32    16    62    1
    33    17    18    2
    34    17    63    1
    35    18    19    1
    36    18    64    1
    37    19    20    2
    38    19    65    1
    39    20    21    1
    40    20    66    1
    41    21    22    2
    42    21    67    1
    43    22    34    1
    44    22    23    1
    45    23    24    1
    46    23    42    1
    47    23    43    1
    48    24    33   ar
    49    24    25   ar
    50    25    30   ar
    51    25    26   ar
    52    26    27   ar
    53    26    68    1
    54    27    28   ar
    55    27    69    1
    56    28    29   ar
    57    28    70    1
    58    29    30   ar
    59    29    71    1
    60    30    31   ar
    61    31    32   ar
    62    31    72    1
    63    32    33   ar
    64    32    73    1
    65    33    34    1
    66    34    35    1
    67    35    36    1
    68    35    74    1
    69    35    75    1
    70    36    37    1
    71    36    76    1
    72    36    77    1
    73    37    38    1
    74    37    78    1
    75    37    79    1
    76    38    39    1
    77    38    80    1
    78    38    81    1
    79    39    40    2
    80    39    41    2
    81    39    99    1
    82    42    82    1
    83    42    83    1
    84    42    84    1
    85    43    85    1
    86    43    86    1
    87    43    87    1
    88    44    45    1
    89    44    88    1
    90    44    89    1
    91    45    46    1
    92    45    90    1
    93    45    91    1
    94    46    47    1
    95    46    92    1
    96    46    93    1
    97    47    48    1
    98    47    94    1
    99    47    95    1
   100    48    49    2
   101    48    50    2
   102    48   100    1
   103    51    96    1
   104    51    97    1
   105    51    98    1
