@<TRIPOS>MOLECULE
ZINC08101057
 87 89 0 0 0
SMALL
GASTEIGER

@<TRIPOS>ATOM
      1 C          -2.3714    0.7199   -5.5430 C.3     1  UNL1        0.0137
      2 C          -3.1664   -0.4194   -6.1839 C.3     1  UNL1        0.0069
      3 H          -2.5795   -0.8652   -6.9870 H       1  UNL1        0.0877
      4 C          -3.4759   -1.4824   -5.1278 C.3     1  UNL1        0.1322
      5 H          -4.0424   -2.2941   -5.5844 H       1  UNL1        0.0681
      6 C          -2.1665   -2.0318   -4.5582 C.3     1  UNL1        0.1145
      7 H          -1.5796   -2.4775   -5.3612 H       1  UNL1        0.0648
      8 C          -1.3714   -0.8924   -3.9173 C.3     1  UNL1        0.1086
      9 H          -0.4386   -1.2838   -3.5114 H       1  UNL1        0.0642
     10 C          -1.0619    0.1705   -4.9733 C.3     1  UNL1        0.0571
     11 H          -0.4750   -0.2753   -5.7764 H       1  UNL1        0.0527
     12 N          -0.3006    1.2614   -4.3597 N.am    1  UNL1       -0.3076
     13 C           0.5033    2.0322   -5.1186 C.2     1  UNL1        0.2421
     14 O           0.5965    1.8227   -6.3095 O.2     1  UNL1       -0.2730
     15 C           1.2865    3.1544   -4.4873 C.3     1  UNL1        0.1357
     16 H           0.6057    3.8164   -3.9522 H       1  UNL1        0.0692
     17 C           2.3091    2.5747   -3.5080 C.3     1  UNL1        0.0219
     18 C           3.0177    3.7160   -2.7757 C.3     1  UNL1       -0.0325
     19 O           1.9664    3.8920   -5.5050 O.3     1  UNL1       -0.3824
     20 O          -2.1409   -0.3080   -2.8644 O.3     1  UNL1       -0.3408
     21 C          -1.6458   -0.5942   -1.5549 C.3     1  UNL1        0.1913
     22 H          -1.5553   -1.6731   -1.4282 H       1  UNL1        0.0939
     23 C          -2.6152   -0.0370   -0.5092 C.3     1  UNL1        0.1506
     24 H          -3.5812   -0.5321   -0.6076 H       1  UNL1        0.0702
     25 C          -2.0482   -0.2946    0.8917 C.3     1  UNL1        0.0360
     26 H          -1.9722   -1.3685    1.0623 H       1  UNL1        0.0904
     27 C          -0.6574    0.3396    0.9903 C.3     1  UNL1        0.1283
     28 H          -0.2227    0.1147    1.9642 H       1  UNL1        0.0678
     29 C           0.2364   -0.2322   -0.1133 C.3     1  UNL1        0.1159
     30 H           0.3515   -1.3063    0.0322 H       1  UNL1        0.0648
     31 O          -0.3639    0.0146   -1.3864 O.3     1  UNL1       -0.3403
     32 C           1.6096    0.4403   -0.0575 C.3     1  UNL1        0.0731
     33 O           2.4799   -0.1740   -1.0099 O.3     1  UNL1       -0.3924
     34 O          -0.7658    1.7556    0.8312 O.3     1  UNL1       -0.3834
     35 O          -2.7766    1.3688   -0.7089 O.3     1  UNL1       -0.3812
     36 O          -2.4556   -3.0245   -3.5718 O.3     1  UNL1       -0.3864
     37 O          -4.2454   -0.8980   -4.0750 O.3     1  UNL1       -0.3372
     38 C          -5.6564   -1.0689   -4.2225 C.3     1  UNL1        0.1887
     39 H          -5.9502   -0.8054   -5.2386 H       1  UNL1        0.0938
     40 C          -6.3871   -0.1626   -3.2283 C.3     1  UNL1        0.1341
     41 H          -6.1603    0.8800   -3.4511 H       1  UNL1        0.0671
     42 C          -7.8961   -0.3955   -3.3508 C.3     1  UNL1        0.1142
     43 H          -8.2288   -0.1129   -4.3495 H       1  UNL1        0.0648
     44 C          -8.1936   -1.8791   -3.1122 C.3     1  UNL1        0.1147
     45 H          -9.2587   -2.0649   -3.2512 H       1  UNL1        0.0648
     46 C          -7.3932   -2.7191   -4.1109 C.3     1  UNL1        0.1294
     47 H          -7.7099   -2.4772   -5.1254 H       1  UNL1        0.0678
     48 O          -6.0010   -2.4316   -3.9649 O.3     1  UNL1       -0.3375
     49 C          -7.6385   -4.2048   -3.8400 C.3     1  UNL1       -0.0058
     50 O          -7.8169   -2.2334   -1.7801 O.3     1  UNL1       -0.3864
     51 O          -8.5838    0.3926   -2.3770 O.3     1  UNL1       -0.3864
     52 O          -5.9625   -0.4715   -1.8993 O.3     1  UNL1       -0.3841
     53 H          -2.1509    1.4771   -6.2954 H       1  UNL1        0.0340
     54 H          -2.9583    1.1656   -4.7399 H       1  UNL1        0.0340
     55 H          -0.3752    1.4290   -3.4072 H       1  UNL1        0.1491
     56 H           1.7991    1.9396   -2.7837 H       1  UNL1        0.0347
     57 H           3.0428    1.9839   -4.0563 H       1  UNL1        0.0347
     58 H           3.5277    4.3512   -3.5000 H       1  UNL1        0.0814
     59 H           2.2840    4.3069   -2.2274 H       1  UNL1        0.0814
     60 H           4.6531    2.5552   -2.3106 H       1  UNL1        0.1994
     61 H           4.4814    3.8939   -1.3389 H       1  UNL1        0.1994
     62 H           2.5902    3.3647   -6.0227 H       1  UNL1        0.2104
     63 H           1.5050    1.4998   -0.2912 H       1  UNL1        0.0584
     64 H           2.0285    0.3285    0.9426 H       1  UNL1        0.0584
     65 H           3.3701    0.2030   -1.0297 H       1  UNL1        0.2095
     66 H           0.0794    2.2228    0.8807 H       1  UNL1        0.2102
     67 H          -3.8576   -0.0993    1.8544 H       1  UNL1        0.1999
     68 H          -2.5432    0.2090    2.8256 H       1  UNL1        0.1999
     69 H          -3.1286    1.6047   -1.5781 H       1  UNL1        0.2103
     70 H          -2.8862   -3.8154   -3.9242 H       1  UNL1        0.2100
     71 H          -7.2677   -4.4592   -2.8472 H       1  UNL1        0.0840
     72 H          -8.7073   -4.4120   -3.8928 H       1  UNL1        0.0840
     73 H          -5.9370   -4.8584   -4.7971 H       1  UNL1        0.1995
     74 H          -7.1566   -5.9881   -4.7487 H       1  UNL1        0.1995
     75 H          -8.2859   -1.7390   -1.0940 H       1  UNL1        0.2100
     76 H          -8.4401    1.3444   -2.4687 H       1  UNL1        0.2100
     77 H          -5.0334   -0.2674   -1.7258 H       1  UNL1        0.2101
     78 H          -4.2460    0.8124   -7.4311 H       1  UNL1        0.1998
     79 H          -4.9962   -0.6350   -7.1025 H       1  UNL1        0.1998
     80 N           3.9841    3.1464   -1.8202 N.4     1  UNL1        0.2186
     81 H           3.4803    2.5795   -1.1281 H       1  UNL1        0.1994
     82 N          -2.9334    0.3276    1.8922 N.4     1  UNL1        0.2246
     83 H          -3.0191    1.3305    1.6898 H       1  UNL1        0.1999
     84 N          -6.9434   -4.9992   -4.8681 N.4     1  UNL1        0.2204
     85 H          -7.2590   -4.6983   -5.7977 H       1  UNL1        0.1995
     86 N          -4.4337    0.1180   -6.7098 N.4     1  UNL1        0.2227
     87 H          -4.9553    0.5620   -5.9449 H       1  UNL1        0.1998
@<TRIPOS>UNITY_ATOM_ATTR
80 1
charge 1
82 1
charge 1
84 1
charge 1
86 1
charge 1
@<TRIPOS>BOND
     1     1    10    1
     2     1     2    1
     3     1    53    1
     4     1    54    1
     5     2     3    1
     6     2     4    1
     7     2    86    1
     8     4     5    1
     9     4     6    1
    10     4    37    1
    11     6     7    1
    12     6     8    1
    13     6    36    1
    14     8     9    1
    15     8    10    1
    16     8    20    1
    17    10    11    1
    18    10    12    1
    19    12    13   am
    20    12    55    1
    21    13    14    2
    22    13    15    1
    23    15    16    1
    24    15    17    1
    25    15    19    1
    26    17    18    1
    27    17    56    1
    28    17    57    1
    29    18    58    1
    30    18    59    1
    31    18    80    1
    32    19    62    1
    33    20    21    1
    34    21    22    1
    35    21    31    1
    36    21    23    1
    37    23    24    1
    38    23    25    1
    39    23    35    1
    40    25    26    1
    41    25    27    1
    42    25    82    1
    43    27    28    1
    44    27    29    1
    45    27    34    1
    46    29    30    1
    47    29    31    1
    48    29    32    1
    49    32    33    1
    50    32    63    1
    51    32    64    1
    52    33    65    1
    53    34    66    1
    54    35    69    1
    55    36    70    1
    56    37    38    1
    57    38    39    1
    58    38    48    1
    59    38    40    1
    60    40    41    1
    61    40    42    1
    62    40    52    1
    63    42    43    1
    64    42    44    1
    65    42    51    1
    66    44    45    1
    67    44    46    1
    68    44    50    1
    69    46    47    1
    70    46    48    1
    71    46    49    1
    72    49    71    1
    73    49    72    1
    74    49    84    1
    75    50    75    1
    76    51    76    1
    77    52    77    1
    78    60    80    1
    79    61    80    1
    80    67    82    1
    81    68    82    1
    82    73    84    1
    83    74    84    1
    84    78    86    1
    85    79    86    1
    86    80    81    1
    87    82    83    1
    88    84    85    1
    89    86    87    1
