@<TRIPOS>MOLECULE
ZINC03830967
 22 23 0 0 0
SMALL
GASTEIGER

@<TRIPOS>ATOM
      1 C          -0.8118    1.9593   -1.1930 C.3     1  UNL1        0.0767
      2 C          -0.0173    1.4248    0.0099 C.3     1  UNL1        0.1071
      3 H           0.9987    1.8195    0.0023 H       1  UNL1        0.0643
      4 C          -0.7905    1.9475    1.2363 C.3     1  UNL1        0.1166
      5 H          -0.1384    2.1713    2.0807 H       1  UNL1        0.0650
      6 C          -1.5342    3.1930    0.6829 C.3     1  UNL1        0.1331
      7 H          -1.0193    4.1236    0.9215 H       1  UNL1        0.0663
      8 O          -1.6833    2.9915   -0.7250 O.3     1  UNL1       -0.3673
      9 C          -2.9295    3.1080    1.3447 C.3     1  UNL1        0.2283
     10 H          -3.7075    3.0284    0.5855 H       1  UNL1        0.0858
     11 C          -2.8688    1.8191    2.1934 C.3     1  UNL1        0.0947
     12 O          -1.8383    1.0175    1.5749 O.3     1  UNL1       -0.3672
     13 O          -3.1605    4.2453    2.1785 O.2     1  UNL1       -0.2081
     14 N          -4.5289    4.5022    2.4360 N.pl3   1  UNL1        0.2847
     15 O          -5.3847    3.7789    1.9585 O.2     1  UNL1        0.0934
     16 O          -4.8503    5.4464    3.1351 O.co2   1  UNL1       -0.5338
     17 O           0.0021   -0.0041    0.0020 O.3     1  UNL1       -0.3869
     18 H          -0.1254    2.3631   -1.9373 H       1  UNL1        0.0586
     19 H          -1.3991    1.1536   -1.6335 H       1  UNL1        0.0586
     20 H          -3.8256    1.2980    2.1608 H       1  UNL1        0.0600
     21 H          -2.5993    2.0551    3.2229 H       1  UNL1        0.0600
     22 H           0.4511   -0.3871   -0.7640 H       1  UNL1        0.2100
@<TRIPOS>UNITY_ATOM_ATTR
14 1
charge 1
16 1
charge -1
@<TRIPOS>BOND
     1     1     8    1
     2     1     2    1
     3     1    18    1
     4     1    19    1
     5     2     3    1
     6     2     4    1
     7     2    17    1
     8     4     5    1
     9     4    12    1
    10     4     6    1
    11     6     7    1
    12     6     8    1
    13     6     9    1
    14     9    10    1
    15     9    11    1
    16     9    13    1
    17    11    12    1
    18    11    20    1
    19    11    21    1
    20    13    14    1
    21    14    15    2
    22    14    16    1
    23    17    22    1
