@<TRIPOS>MOLECULE
ZINC03830763
 44 47 0 0 0
SMALL
GASTEIGER

@<TRIPOS>ATOM
      1 C           4.9059   -3.2233    2.2837 C.3     1  UNL1       -0.0569
      2 C           5.6386   -2.5970    1.1000 C.3     1  UNL1       -0.0030
      3 C           5.7815   -1.1036    1.2859 C.3     1  UNL1       -0.0445
      4 C           4.3914   -0.4590    1.2135 C.3     1  UNL1       -0.0454
      5 C           3.7034   -0.7494   -0.1166 C.3     1  UNL1       -0.0125
      6 H           4.2984   -0.2901   -0.9155 H       1  UNL1        0.0352
      7 C           2.3347   -0.1196   -0.1258 C.ar    1  UNL1       -0.0406
      8 C           2.2714    1.2695   -0.1432 C.ar    1  UNL1       -0.0546
      9 C           1.0561    1.9185   -0.1615 C.ar    1  UNL1       -0.0199
     10 C          -0.1183    1.1795   -0.1595 C.ar    1  UNL1        0.1171
     11 C          -0.0564   -0.2035   -0.1397 C.ar    1  UNL1       -0.0167
     12 C           1.1695   -0.8533   -0.1250 C.ar    1  UNL1       -0.0405
     13 C           1.1656   -2.3610   -0.1032 C.3     1  UNL1       -0.0270
     14 C           2.5048   -2.8639    0.4534 C.3     1  UNL1       -0.0454
     15 C           3.6105   -2.2519   -0.3959 C.3     1  UNL1       -0.0305
     16 H           3.3007   -2.3602   -1.4575 H       1  UNL1        0.0310
     17 C           4.9582   -2.8776   -0.2545 C.3     1  UNL1       -0.0298
     18 H           5.6083   -2.4445   -1.0501 H       1  UNL1        0.0310
     19 C           5.0913   -4.3995   -0.3665 C.3     1  UNL1       -0.0470
     20 C           6.5418   -4.6452    0.1409 C.3     1  UNL1       -0.0261
     21 C           6.9598   -3.3674    0.9135 C.3     1  UNL1        0.0609
     22 H           7.6540   -2.7731    0.3288 H       1  UNL1        0.0599
     23 O           7.5086   -3.7053    2.1848 O.3     1  UNL1       -0.3912
     24 O          -1.3219    1.8094   -0.1825 O.3     1  UNL1       -0.5068
     25 H           4.7503   -4.2853    2.0939 H       1  UNL1        0.0236
     26 H           5.5028   -3.0993    3.1873 H       1  UNL1        0.0236
     27 H           3.9416   -2.7325    2.4150 H       1  UNL1        0.0236
     28 H           6.2334   -0.8916    2.2588 H       1  UNL1        0.0272
     29 H           6.4193   -0.6896    0.5005 H       1  UNL1        0.0272
     30 H           3.7690   -0.8102    2.0311 H       1  UNL1        0.0271
     31 H           4.5068    0.6250    1.3145 H       1  UNL1        0.0271
     32 H           3.1858    1.8443   -0.1428 H       1  UNL1        0.0622
     33 H           1.0175    2.9979   -0.1780 H       1  UNL1        0.0654
     34 H          -0.9701   -0.7794   -0.1365 H       1  UNL1        0.0657
     35 H           0.3591   -2.7126    0.5355 H       1  UNL1        0.0313
     36 H           1.0335   -2.7391   -1.1135 H       1  UNL1        0.0313
     37 H           2.5797   -2.5296    1.4880 H       1  UNL1        0.0271
     38 H           2.5337   -3.9492    0.3993 H       1  UNL1        0.0271
     39 H           4.3650   -4.9184    0.2503 H       1  UNL1        0.0269
     40 H           4.9991   -4.7138   -1.4092 H       1  UNL1        0.0269
     41 H           7.2083   -4.8020   -0.7071 H       1  UNL1        0.0290
     42 H           6.5663   -5.5087    0.8024 H       1  UNL1        0.0290
     43 H           8.3425   -4.1925    2.1362 H       1  UNL1        0.2098
     44 H          -1.6808    2.0039    0.6941 H       1  UNL1        0.2921
@<TRIPOS>BOND
     1     1     2    1
     2     1    25    1
     3     1    26    1
     4     1    27    1
     5     2    17    1
     6     2    21    1
     7     2     3    1
     8     3     4    1
     9     3    28    1
    10     3    29    1
    11     4     5    1
    12     4    30    1
    13     4    31    1
    14     5     6    1
    15     5    15    1
    16     5     7    1
    17     7    12   ar
    18     7     8   ar
    19     8     9   ar
    20     8    32    1
    21     9    10   ar
    22     9    33    1
    23    10    11   ar
    24    10    24    1
    25    11    12   ar
    26    11    34    1
    27    12    13    1
    28    13    14    1
    29    13    35    1
    30    13    36    1
    31    14    15    1
    32    14    37    1
    33    14    38    1
    34    15    16    1
    35    15    17    1
    36    17    18    1
    37    17    19    1
    38    19    20    1
    39    19    39    1
    40    19    40    1
    41    20    21    1
    42    20    41    1
    43    20    42    1
    44    21    22    1
    45    21    23    1
    46    23    43    1
    47    24    44    1
