@<TRIPOS>MOLECULE
ZINC03831171
 62 64 0 0 0
SMALL
GASTEIGER

@<TRIPOS>ATOM
      1 C          -0.4841    9.4862   -7.0607 C.3     1  UNL1       -0.0245
      2 C          -1.3199   10.2688   -6.0458 C.3     1  UNL1       -0.0347
      3 C           0.1916    9.9040   -4.1898 C.3     1  UNL1       -0.0347
      4 C           0.3641   11.3902   -3.8702 C.3     1  UNL1       -0.0245
      5 C          -2.1802   10.1734   -3.7845 C.3     1  UNL1        0.0032
      6 C          -2.2275    9.2777   -2.5450 C.3     1  UNL1        0.1320
      7 O          -2.7280    7.9657   -2.9147 O.3     1  UNL1       -0.4591
      8 C          -2.9185    7.0839   -1.9208 C.2     1  UNL1        0.3108
      9 O          -2.5939    7.3666   -0.7919 O.2     1  UNL1       -0.2505
     10 C          -3.5373    5.7413   -2.2131 C.3     1  UNL1        0.0627
     11 H          -3.3572    5.4773   -3.2552 H       1  UNL1        0.0417
     12 C          -2.9114    4.6823   -1.3033 C.3     1  UNL1       -0.0141
     13 C          -3.4399    3.3218   -1.6785 C.ar    1  UNL1       -0.0389
     14 C          -4.5138    2.8006   -1.0241 C.ar    1  UNL1       -0.0580
     15 C          -5.0163    1.5443   -1.3570 C.ar    1  UNL1       -0.0609
     16 C          -4.4543    0.8061   -2.3530 C.ar    1  UNL1       -0.0540
     17 C          -3.3508    1.3156   -3.0580 C.ar    1  UNL1       -0.0176
     18 C          -2.8363    2.5913   -2.7159 C.ar    1  UNL1       -0.0147
     19 C          -1.7363    3.1033   -3.4252 C.ar    1  UNL1       -0.0538
     20 C          -1.1778    2.3674   -4.4244 C.ar    1  UNL1       -0.0612
     21 C          -1.6803    1.1107   -4.7573 C.ar    1  UNL1       -0.0612
     22 C          -2.7440    0.5828   -4.0925 C.ar    1  UNL1       -0.0540
     23 C          -5.0443    5.8076   -1.9569 C.3     1  UNL1       -0.0134
     24 C          -5.6798    6.8201   -2.9117 C.3     1  UNL1        0.0595
     25 H          -5.1508    7.7718   -2.8616 H       1  UNL1        0.0596
     26 C          -7.1736    7.0167   -2.5706 C.3     1  UNL1       -0.0245
     27 C          -7.8550    7.1791   -3.9478 C.3     1  UNL1       -0.0271
     28 C          -6.6922    7.0614   -4.9581 C.3     1  UNL1        0.0481
     29 O          -5.6739    6.3096   -4.2627 O.3     1  UNL1       -0.3765
     30 H          -0.5766    9.9504   -8.0425 H       1  UNL1        0.0281
     31 H           0.5614    9.4930   -6.7526 H       1  UNL1        0.0281
     32 H          -0.8417    8.4577   -7.1099 H       1  UNL1        0.0281
     33 H          -2.3700   10.2344   -6.3363 H       1  UNL1        0.0812
     34 H          -0.9837   11.3053   -6.0205 H       1  UNL1        0.0812
     35 H           0.3360    9.3180   -3.2822 H       1  UNL1        0.0812
     36 H           0.9276    9.6051   -4.9362 H       1  UNL1        0.0812
     37 H           0.0978   11.9833   -4.7451 H       1  UNL1        0.0281
     38 H          -0.2848   11.6603   -3.0370 H       1  UNL1        0.0281
     39 H           1.4019   11.5859   -3.6007 H       1  UNL1        0.0281
     40 H          -3.1537   10.1669   -4.2748 H       1  UNL1        0.0848
     41 H          -1.9297   11.1918   -3.4876 H       1  UNL1        0.0848
     42 H          -2.8883    9.7221   -1.8007 H       1  UNL1        0.0752
     43 H          -1.2249    9.1801   -2.1288 H       1  UNL1        0.0752
     44 H          -3.1668    4.8978   -0.2658 H       1  UNL1        0.0321
     45 H          -1.8279    4.6964   -1.4212 H       1  UNL1        0.0321
     46 H          -4.9782    3.3658   -0.2296 H       1  UNL1        0.0620
     47 H          -5.8641    1.1503   -0.8164 H       1  UNL1        0.0618
     48 H          -4.8547   -0.1660   -2.6003 H       1  UNL1        0.0624
     49 H          -1.3361    4.0756   -3.1783 H       1  UNL1        0.0624
     50 H          -0.3325    2.7632   -4.9678 H       1  UNL1        0.0618
     51 H          -1.2189    0.5475   -5.5550 H       1  UNL1        0.0618
     52 H          -3.1226   -0.3923   -4.3614 H       1  UNL1        0.0624
     53 H          -5.4848    4.8246   -2.1238 H       1  UNL1        0.0298
     54 H          -5.2245    6.1164   -0.9272 H       1  UNL1        0.0298
     55 H          -7.5652    6.1418   -2.0516 H       1  UNL1        0.0291
     56 H          -7.3125    7.9125   -1.9655 H       1  UNL1        0.0291
     57 H          -8.5834    6.3845   -4.1097 H       1  UNL1        0.0288
     58 H          -8.3331    8.1556   -4.0246 H       1  UNL1        0.0288
     59 H          -7.0172    6.5255   -5.8499 H       1  UNL1        0.0560
     60 H          -6.3201    8.0505   -5.2252 H       1  UNL1        0.0560
     61 N          -1.1641    9.6412   -4.7167 N.4     1  UNL1        0.2372
     62 H          -1.2951    8.6270   -4.8093 H       1  UNL1        0.2034
@<TRIPOS>UNITY_ATOM_ATTR
61 1
charge 1
@<TRIPOS>BOND
     1     1     2    1
     2     1    30    1
     3     1    31    1
     4     1    32    1
     5     2    33    1
     6     2    34    1
     7     2    61    1
     8     3     4    1
     9     3    35    1
    10     3    36    1
    11     3    61    1
    12     4    37    1
    13     4    38    1
    14     4    39    1
    15     5     6    1
    16     5    40    1
    17     5    41    1
    18     5    61    1
    19     6     7    1
    20     6    42    1
    21     6    43    1
    22     7     8    1
    23     8     9    2
    24     8    10    1
    25    10    11    1
    26    10    12    1
    27    10    23    1
    28    12    13    1
    29    12    44    1
    30    12    45    1
    31    13    18   ar
    32    13    14   ar
    33    14    15   ar
    34    14    46    1
    35    15    16   ar
    36    15    47    1
    37    16    17   ar
    38    16    48    1
    39    17    22   ar
    40    17    18   ar
    41    18    19   ar
    42    19    20   ar
    43    19    49    1
    44    20    21   ar
    45    20    50    1
    46    21    22   ar
    47    21    51    1
    48    22    52    1
    49    23    24    1
    50    23    53    1
    51    23    54    1
    52    24    25    1
    53    24    29    1
    54    24    26    1
    55    26    27    1
    56    26    55    1
    57    26    56    1
    58    27    28    1
    59    27    57    1
    60    27    58    1
    61    28    29    1
    62    28    59    1
    63    28    60    1
    64    61    62    1
