@<TRIPOS>MOLECULE
ZINC04198845
 96 102 0 0 0
SMALL
GASTEIGER

@<TRIPOS>ATOM
      1 C           1.5134   -2.8292   -8.3798 C.3     1  UNL1       -0.0409
      2 N           0.8047   -1.5434   -8.3316 N.4     1  UNL1        0.2449
      3 C          -0.6174   -1.7587   -8.6101 C.3     1  UNL1       -0.0259
      4 C          -1.1819   -2.8391   -7.6953 C.3     1  UNL1        0.0133
      5 C          -0.6556   -2.7147   -6.2890 C.ar    1  UNL1       -0.0302
      6 C          -1.2263   -3.5130   -5.3017 C.ar    1  UNL1       -0.0125
      7 C          -0.7109   -3.4924   -4.0156 C.ar    1  UNL1        0.1624
      8 C           0.3926   -2.6912   -3.7027 C.ar    1  UNL1        0.1704
      9 C           0.8974   -1.8414   -4.6811 C.ar    1  UNL1       -0.0069
     10 C           0.3682   -1.8669   -5.9548 C.ar    1  UNL1        0.0076
     11 C           0.9587   -0.9499   -7.0000 C.3     1  UNL1        0.0107
     12 H           2.0231   -0.8203   -6.7719 H       1  UNL1        0.0908
     13 C           0.2301    0.3995   -6.9647 C.3     1  UNL1        0.0200
     14 C           0.7838    1.1877   -5.7967 C.ar    1  UNL1       -0.0415
     15 C          -0.0269    1.8953   -4.9338 C.ar    1  UNL1       -0.0549
     16 C           0.5016    2.5599   -3.8479 C.ar    1  UNL1       -0.0191
     17 C           1.8676    2.4928   -3.6102 C.ar    1  UNL1        0.1286
     18 C           2.6778    1.7933   -4.5047 C.ar    1  UNL1       -0.0191
     19 C           2.1555    1.1446   -5.5887 C.ar    1  UNL1       -0.0549
     20 O           2.4668    3.0104   -2.5321 O.3     1  UNL1       -0.4517
     21 C           2.0480    3.9382   -1.6670 C.ar    1  UNL1        0.1822
     22 C           1.9031    3.5658   -0.3313 C.ar    1  UNL1        0.0499
     23 C           1.6389    4.5001    0.6439 C.ar    1  UNL1       -0.0266
     24 C           1.3731    5.8095    0.2724 C.ar    1  UNL1       -0.0122
     25 C           1.4067    6.1685   -1.0622 C.ar    1  UNL1        0.1655
     26 C           1.7588    5.2531   -2.0464 C.ar    1  UNL1        0.2046
     27 O           1.8206    5.6280   -3.3531 O.3     1  UNL1       -0.4885
     28 C           3.0994    6.0205   -3.8557 C.3     1  UNL1        0.0791
     29 O           1.0887    7.4419   -1.4186 O.3     1  UNL1       -0.4913
     30 C           0.7344    8.3409   -0.3659 C.3     1  UNL1        0.0790
     31 C           1.6630    4.1321    2.1075 C.3     1  UNL1        0.0135
     32 C           1.4813    2.6311    2.2850 C.3     1  UNL1       -0.0259
     33 N           2.4050    1.9144    1.3946 N.4     1  UNL1        0.2450
     34 C           1.9572    2.0914    0.0041 C.3     1  UNL1        0.0143
     35 H           2.6445    1.5821   -0.6580 H       1  UNL1        0.0909
     36 C           0.5560    1.5035   -0.1536 C.3     1  UNL1        0.0202
     37 C           0.5771    0.0030   -0.1731 C.ar    1  UNL1       -0.0380
     38 C           0.4265   -0.6920    1.0191 C.ar    1  UNL1       -0.0547
     39 C           0.4572   -2.0772    1.0260 C.ar    1  UNL1       -0.0160
     40 C           0.6344   -2.7623   -0.1647 C.ar    1  UNL1        0.1621
     41 C           0.7588   -2.0640   -1.3755 C.ar    1  UNL1        0.1702
     42 C           0.7104   -0.6820   -1.3624 C.ar    1  UNL1       -0.0123
     43 O           0.9669   -2.7744   -2.4938 O.3     1  UNL1       -0.4487
     44 O           0.6877   -4.1211   -0.1604 O.3     1  UNL1       -0.4914
     45 C           0.5540   -4.7716    1.1049 C.3     1  UNL1        0.0790
     46 C           3.7602    2.4605    1.5476 C.3     1  UNL1       -0.0409
     47 C           2.4076    0.4853    1.7342 C.3     1  UNL1       -0.0409
     48 O          -1.2828   -4.2585   -3.0485 O.3     1  UNL1       -0.4914
     49 C          -2.4063   -5.0543   -3.4311 C.3     1  UNL1        0.0790
     50 C           1.3696   -0.6370   -9.3402 C.3     1  UNL1       -0.0409
     51 H           1.3998   -3.2697   -9.3704 H       1  UNL1        0.0778
     52 H           2.5715   -2.6689   -8.1726 H       1  UNL1        0.0778
     53 H           1.0948   -3.5031   -7.6323 H       1  UNL1        0.0778
     54 H          -0.7381   -2.0671   -9.6485 H       1  UNL1        0.0818
     55 H          -1.1611   -0.8283   -8.4462 H       1  UNL1        0.0818
     56 H          -0.9089   -3.8173   -8.0911 H       1  UNL1        0.0365
     57 H          -2.2684   -2.7548   -7.6763 H       1  UNL1        0.0365
     58 H          -2.0687   -4.1463   -5.5374 H       1  UNL1        0.0658
     59 H           1.7027   -1.1621   -4.4438 H       1  UNL1        0.0660
     60 H           0.4085    0.9406   -7.8940 H       1  UNL1        0.0372
     61 H          -0.8394    0.2389   -6.8288 H       1  UNL1        0.0372
     62 H          -1.0916    1.9291   -5.1115 H       1  UNL1        0.0621
     63 H          -0.1399    3.1269   -3.1896 H       1  UNL1        0.0654
     64 H           3.7442    1.7633   -4.3365 H       1  UNL1        0.0654
     65 H           2.7985    0.6085   -6.2710 H       1  UNL1        0.0621
     66 H           1.1397    6.5481    1.0250 H       1  UNL1        0.0658
     67 H           2.9932    6.3781   -4.8798 H       1  UNL1        0.0660
     68 H           3.5056    6.8175   -3.2328 H       1  UNL1        0.0660
     69 H           3.7750    5.1653   -3.8376 H       1  UNL1        0.0660
     70 H           1.5678    8.4313    0.3307 H       1  UNL1        0.0660
     71 H           0.5044    9.3200   -0.7863 H       1  UNL1        0.0660
     72 H          -0.1394    7.9573    0.1608 H       1  UNL1        0.0660
     73 H           2.6185    4.4319    2.5379 H       1  UNL1        0.0365
     74 H           0.8577    4.6552    2.6231 H       1  UNL1        0.0365
     75 H           1.6904    2.3598    3.3198 H       1  UNL1        0.0818
     76 H           0.4550    2.3580    2.0397 H       1  UNL1        0.0818
     77 H           0.1229    1.8644   -1.0865 H       1  UNL1        0.0372
     78 H          -0.0650    1.8388    0.6771 H       1  UNL1        0.0372
     79 H           0.2848   -0.1517    1.9434 H       1  UNL1        0.0621
     80 H           0.3434   -2.6190    1.9533 H       1  UNL1        0.0655
     81 H           0.7771   -0.1348   -2.2912 H       1  UNL1        0.0658
     82 H          -0.4094   -4.5149    1.5455 H       1  UNL1        0.0660
     83 H           0.6142   -5.8511    0.9667 H       1  UNL1        0.0660
     84 H           1.3552   -4.4450    1.7678 H       1  UNL1        0.0660
     85 H           4.0861    2.3396    2.5807 H       1  UNL1        0.0778
     86 H           4.4434    1.9275    0.8864 H       1  UNL1        0.0778
     87 H           3.7565    3.5194    1.2893 H       1  UNL1        0.0778
     88 H           1.5368    0.2562    2.3484 H       1  UNL1        0.0778
     89 H           2.3724   -0.1058    0.8191 H       1  UNL1        0.0778
     90 H           3.3156    0.2449    2.2873 H       1  UNL1        0.0778
     91 H          -2.7654   -5.6149   -2.5680 H       1  UNL1        0.0660
     92 H          -3.2016   -4.4066   -3.8001 H       1  UNL1        0.0660
     93 H          -2.1091   -5.7486   -4.2171 H       1  UNL1        0.0660
     94 H           0.7613    0.2656   -9.3990 H       1  UNL1        0.0778
     95 H           2.3886   -0.3708   -9.0594 H       1  UNL1        0.0778
     96 H           1.3781   -1.1333  -10.3106 H       1  UNL1        0.0778
@<TRIPOS>UNITY_ATOM_ATTR
2 1
charge 1
33 1
charge 1
@<TRIPOS>BOND
     1     1     2    1
     2     1    51    1
     3     1    52    1
     4     1    53    1
     5     2    11    1
     6     2     3    1
     7     2    50    1
     8     3     4    1
     9     3    54    1
    10     3    55    1
    11     4     5    1
    12     4    56    1
    13     4    57    1
    14     5    10   ar
    15     5     6   ar
    16     6     7   ar
    17     6    58    1
    18     7     8   ar
    19     7    48    1
    20     8    43    1
    21     8     9   ar
    22     9    10   ar
    23     9    59    1
    24    10    11    1
    25    11    12    1
    26    11    13    1
    27    13    14    1
    28    13    60    1
    29    13    61    1
    30    14    19   ar
    31    14    15   ar
    32    15    16   ar
    33    15    62    1
    34    16    17   ar
    35    16    63    1
    36    17    18   ar
    37    17    20    1
    38    18    19   ar
    39    18    64    1
    40    19    65    1
    41    20    21    1
    42    21    26   ar
    43    21    22   ar
    44    22    34    1
    45    22    23   ar
    46    23    24   ar
    47    23    31    1
    48    24    25   ar
    49    24    66    1
    50    25    26   ar
    51    25    29    1
    52    26    27    1
    53    27    28    1
    54    28    67    1
    55    28    68    1
    56    28    69    1
    57    29    30    1
    58    30    70    1
    59    30    71    1
    60    30    72    1
    61    31    32    1
    62    31    73    1
    63    31    74    1
    64    32    33    1
    65    32    75    1
    66    32    76    1
    67    33    34    1
    68    33    46    1
    69    33    47    1
    70    34    35    1
    71    34    36    1
    72    36    37    1
    73    36    77    1
    74    36    78    1
    75    37    42   ar
    76    37    38   ar
    77    38    39   ar
    78    38    79    1
    79    39    40   ar
    80    39    80    1
    81    40    41   ar
    82    40    44    1
    83    41    42   ar
    84    41    43    1
    85    42    81    1
    86    44    45    1
    87    45    82    1
    88    45    83    1
    89    45    84    1
    90    46    85    1
    91    46    86    1
    92    46    87    1
    93    47    88    1
    94    47    89    1
    95    47    90    1
    96    48    49    1
    97    49    91    1
    98    49    92    1
    99    49    93    1
   100    50    94    1
   101    50    95    1
   102    50    96    1
