@<TRIPOS>MOLECULE
ZINC11698074
 51 55 0 0 0
SMALL
GASTEIGER

@<TRIPOS>ATOM
      1 C           1.2421    6.3030    1.9102 C.3     1  UNL1       -0.0569
      2 C          -0.1125    5.9337    1.3024 C.3     1  UNL1       -0.0030
      3 C           0.1027    5.0997    0.0533 C.3     1  UNL1       -0.0447
      4 C           0.3809    3.6362    0.3695 C.3     1  UNL1       -0.0488
      5 C          -0.8085    3.0763    1.1544 C.3     1  UNL1       -0.0297
      6 H          -1.7104    3.3245    0.5949 H       1  UNL1        0.0310
      7 C          -0.8730    3.7889    2.4819 C.3     1  UNL1       -0.0341
      8 H          -1.7813    3.4613    2.9876 H       1  UNL1        0.0306
      9 C          -0.9421    5.2831    2.3484 C.3     1  UNL1       -0.0301
     10 H          -0.6540    5.7130    3.3077 H       1  UNL1        0.0310
     11 C          -2.4064    5.7546    2.0922 C.3     1  UNL1       -0.0470
     12 C          -2.1797    7.2387    1.7000 C.3     1  UNL1       -0.0261
     13 C          -0.8642    7.2240    0.8931 C.3     1  UNL1        0.0609
     14 H          -0.2641    8.1001    1.1390 H       1  UNL1        0.0599
     15 O          -1.1484    7.2024   -0.5072 O.3     1  UNL1       -0.3912
     16 C           0.3251    3.3768    3.3428 C.3     1  UNL1       -0.0469
     17 C           0.1849    1.9013    3.7012 C.3     1  UNL1       -0.0200
     18 C           0.0584    1.0398    2.4486 C.3     1  UNL1        0.1091
     19 C          -0.7288    1.5792    1.2668 C.3     1  UNL1        0.0045
     20 C          -2.1194    0.9414    1.2467 C.3     1  UNL1       -0.0220
     21 C          -1.9599   -0.5492    1.0581 C.3     1  UNL1        0.1074
     22 C          -1.0126   -1.2118    1.7456 C.2     1  UNL1        0.1814
     23 C          -0.1129   -0.4750    2.7056 C.3     1  UNL1        0.1478
     24 H          -0.4069   -0.6217    3.6501 H       1  UNL1        0.0706
     25 O           1.0927    0.0878    2.1872 O.3     1  UNL1       -0.3562
     26 O          -0.8669   -2.5432    1.5758 O.2     1  UNL1       -0.2932
     27 C          -2.8144   -1.2541    0.1505 C.1     1  UNL1        0.0736
     28 N          -3.4922   -1.8132   -0.5695 N.1     1  UNL1       -0.1958
     29 C          -0.0127    1.0858    0.0080 C.3     1  UNL1       -0.0565
     30 H           1.8259    6.8658    1.1818 H       1  UNL1        0.0236
     31 H           1.0869    6.9125    2.8004 H       1  UNL1        0.0236
     32 H           1.7786    5.3938    2.1815 H       1  UNL1        0.0236
     33 H           0.9479    5.5073   -0.5014 H       1  UNL1        0.0271
     34 H          -0.7900    5.1625   -0.5689 H       1  UNL1        0.0271
     35 H           1.2871    3.5563    0.9699 H       1  UNL1        0.0268
     36 H           0.5046    3.0769   -0.5578 H       1  UNL1        0.0268
     37 H          -3.0231    5.6782    2.9877 H       1  UNL1        0.0269
     38 H          -2.8494    5.1969    1.2671 H       1  UNL1        0.0269
     39 H          -2.0729    7.8565    2.5917 H       1  UNL1        0.0290
     40 H          -3.0014    7.6014    1.0824 H       1  UNL1        0.0290
     41 H          -1.6190    7.9850   -0.8251 H       1  UNL1        0.2098
     42 H           0.3431    3.9743    4.2543 H       1  UNL1        0.0269
     43 H           1.2477    3.5312    2.7834 H       1  UNL1        0.0269
     44 H          -0.7029    1.7663    4.3189 H       1  UNL1        0.0294
     45 H           1.0633    1.5862    4.2644 H       1  UNL1        0.0294
     46 H          -2.6265    1.1387    2.1911 H       1  UNL1        0.0288
     47 H          -2.7002    1.3550    0.4223 H       1  UNL1        0.0288
     48 H          -1.3102   -0.7239    0.3183 H       1  UNL1        0.0533
     49 H           0.0021   -0.0041    0.0020 H       1  UNL1        0.0236
     50 H           1.0099    1.4631    0.0003 H       1  UNL1        0.0236
     51 H          -0.5399    1.4469   -0.8751 H       1  UNL1        0.0236
@<TRIPOS>BOND
     1     1     2    1
     2     1    30    1
     3     1    31    1
     4     1    32    1
     5     2     9    1
     6     2    13    1
     7     2     3    1
     8     3     4    1
     9     3    33    1
    10     3    34    1
    11     4     5    1
    12     4    35    1
    13     4    36    1
    14     5     6    1
    15     5    19    1
    16     5     7    1
    17     7     8    1
    18     7     9    1
    19     7    16    1
    20     9    10    1
    21     9    11    1
    22    11    12    1
    23    11    37    1
    24    11    38    1
    25    12    13    1
    26    12    39    1
    27    12    40    1
    28    13    14    1
    29    13    15    1
    30    15    41    1
    31    16    17    1
    32    16    42    1
    33    16    43    1
    34    17    18    1
    35    17    44    1
    36    17    45    1
    37    18    23    1
    38    18    25    1
    39    18    19    1
    40    19    20    1
    41    19    29    1
    42    20    21    1
    43    20    46    1
    44    20    47    1
    45    21    27    1
    46    21    48    1
    47    21    22    1
    48    22    23    1
    49    22    26    2
    50    23    25    1
    51    23    24    1
    52    27    28    3
    53    29    49    1
    54    29    50    1
    55    29    51    1
