@<TRIPOS>MOLECULE
ZINC08101143
 73 75 0 0 0
SMALL
GASTEIGER

@<TRIPOS>ATOM
      1 C           4.0808    2.3967    0.1975 C.3     1  UNL1        0.0381
      2 C           4.7562    1.1540   -0.3859 C.3     1  UNL1        0.0104
      3 H           5.3539    1.4382   -1.2520 H       1  UNL1        0.0878
      4 C           3.6876    0.1456   -0.8124 C.3     1  UNL1        0.1326
      5 H           3.0428    0.5966   -1.5667 H       1  UNL1        0.0681
      6 C           2.8486   -0.2533    0.4032 C.3     1  UNL1        0.1181
      7 H           3.4934   -0.7044    1.1575 H       1  UNL1        0.0649
      8 C           2.1732    0.9894    0.9867 C.3     1  UNL1        0.1325
      9 H           1.5755    0.7052    1.8528 H       1  UNL1        0.0681
     10 C           3.2418    1.9978    1.4132 C.3     1  UNL1        0.0104
     11 H           3.8866    1.5468    2.1675 H       1  UNL1        0.0878
     12 O           1.3278    1.5807   -0.0021 O.3     1  UNL1       -0.3371
     13 C          -0.0127    1.0858    0.0080 C.3     1  UNL1        0.1915
     14 H           0.0021   -0.0041    0.0020 H       1  UNL1        0.0939
     15 C          -0.7536    1.5932   -1.2319 C.3     1  UNL1        0.1506
     16 H          -0.2695    1.2071   -2.1289 H       1  UNL1        0.0702
     17 C          -2.2058    1.1083   -1.1834 C.3     1  UNL1        0.0360
     18 H          -2.2280    0.0192   -1.2193 H       1  UNL1        0.0904
     19 C          -2.8512    1.5932    0.1184 C.3     1  UNL1        0.1283
     20 H          -3.8682    1.2071    0.1866 H       1  UNL1        0.0678
     21 C          -2.0293    1.0858    1.3062 C.3     1  UNL1        0.1159
     22 H          -2.0409   -0.0040    1.3172 H       1  UNL1        0.0648
     23 O          -0.6820    1.5469    1.1834 O.3     1  UNL1       -0.3403
     24 C          -2.6334    1.6157    2.6082 C.3     1  UNL1        0.0731
     25 O          -1.9382    1.0494    3.7209 O.3     1  UNL1       -0.3924
     26 O          -2.8807    3.0218    0.1336 O.3     1  UNL1       -0.3834
     27 O          -0.7276    3.0218   -1.2525 O.3     1  UNL1       -0.3812
     28 O           1.8505   -1.1952    0.0049 O.3     1  UNL1       -0.3862
     29 O           4.3184   -1.0151   -1.3574 O.3     1  UNL1       -0.3348
     30 C           3.5437   -1.6833   -2.3551 C.3     1  UNL1        0.2059
     31 H           2.5330   -1.8469   -1.9814 H       1  UNL1        0.0970
     32 C           4.1902   -3.0311   -2.6856 C.3     1  UNL1        0.0567
     33 H           4.1921   -3.6619   -1.7967 H       1  UNL1        0.0927
     34 C           3.3885   -3.7140   -3.7979 C.3     1  UNL1        0.1304
     35 H           2.3776   -3.9190   -3.4455 H       1  UNL1        0.0679
     36 C           3.3286   -2.7843   -5.0137 C.3     1  UNL1        0.1147
     37 H           2.7143   -3.2395   -5.7905 H       1  UNL1        0.0648
     38 C           2.7154   -1.4460   -4.5933 C.3     1  UNL1        0.1132
     39 H           1.6937   -1.6065   -4.2492 H       1  UNL1        0.0647
     40 O           3.4913   -0.8794   -3.5354 O.3     1  UNL1       -0.3381
     41 C           2.7073   -0.4906   -5.7883 C.3     1  UNL1        0.0730
     42 O           2.0306    0.7157   -5.4291 O.3     1  UNL1       -0.3924
     43 O           4.6493   -2.5679   -5.5149 O.3     1  UNL1       -0.3864
     44 O           4.0254   -4.9402   -4.1625 O.3     1  UNL1       -0.3834
     45 H           4.8421    3.1152    0.5014 H       1  UNL1        0.0377
     46 H           3.4360    2.8477   -0.5567 H       1  UNL1        0.0377
     47 H           3.2785    3.8727    2.2629 H       1  UNL1        0.1998
     48 H           1.9411    3.5907    1.3154 H       1  UNL1        0.1998
     49 H          -2.5407    2.7014    2.6363 H       1  UNL1        0.0584
     50 H          -3.6866    1.3395    2.6589 H       1  UNL1        0.0584
     51 H          -2.2688    1.3417    4.5813 H       1  UNL1        0.2095
     52 H          -3.2772    3.3986    0.9310 H       1  UNL1        0.2102
     53 H          -2.5325    1.3525   -3.2013 H       1  UNL1        0.1999
     54 H          -3.9200    1.3998   -2.2856 H       1  UNL1        0.1999
     55 H           0.1626    3.3986   -1.2785 H       1  UNL1        0.2103
     56 H           1.2802   -1.4929    0.7268 H       1  UNL1        0.2100
     57 H           3.7330   -0.2600   -6.0761 H       1  UNL1        0.0584
     58 H           2.1919   -0.9607   -6.6258 H       1  UNL1        0.0584
     59 H           1.9873    1.3692   -6.1406 H       1  UNL1        0.2095
     60 H           4.6867   -1.9869   -6.2870 H       1  UNL1        0.2100
     61 H           3.5703   -5.4265   -4.8635 H       1  UNL1        0.2102
     62 H           6.1190   -2.3612   -2.4221 H       1  UNL1        0.2000
     63 H           5.9982   -3.6840   -3.4228 H       1  UNL1        0.2000
     64 H           6.3399    1.1929    0.9289 H       1  UNL1        0.1998
     65 H           5.0858    0.2157    1.4166 H       1  UNL1        0.1998
     66 N           2.5814    3.1806    1.9932 N.4     1  UNL1        0.2228
     67 H           2.0515    2.8970    2.8257 H       1  UNL1        0.1998
     68 N          -2.9408    1.6777   -2.3265 N.4     1  UNL1        0.2246
     69 H          -2.8815    2.7021   -2.2895 H       1  UNL1        0.1999
     70 N           5.5671   -2.8001   -3.1572 N.4     1  UNL1        0.2263
     71 H           5.5441   -2.1795   -3.9748 H       1  UNL1        0.2000
     72 N           5.6349    0.5270    0.6171 N.4     1  UNL1        0.2228
     73 H           6.1030   -0.2839    0.1960 H       1  UNL1        0.1998
@<TRIPOS>UNITY_ATOM_ATTR
66 1
charge 1
68 1
charge 1
70 1
charge 1
72 1
charge 1
@<TRIPOS>BOND
     1     1    10    1
     2     1     2    1
     3     1    45    1
     4     1    46    1
     5     2     3    1
     6     2     4    1
     7     2    72    1
     8     4     5    1
     9     4     6    1
    10     4    29    1
    11     6     7    1
    12     6     8    1
    13     6    28    1
    14     8     9    1
    15     8    10    1
    16     8    12    1
    17    10    11    1
    18    10    66    1
    19    12    13    1
    20    13    14    1
    21    13    23    1
    22    13    15    1
    23    15    16    1
    24    15    17    1
    25    15    27    1
    26    17    18    1
    27    17    19    1
    28    17    68    1
    29    19    20    1
    30    19    21    1
    31    19    26    1
    32    21    22    1
    33    21    23    1
    34    21    24    1
    35    24    25    1
    36    24    49    1
    37    24    50    1
    38    25    51    1
    39    26    52    1
    40    27    55    1
    41    28    56    1
    42    29    30    1
    43    30    31    1
    44    30    40    1
    45    30    32    1
    46    32    33    1
    47    32    34    1
    48    32    70    1
    49    34    35    1
    50    34    36    1
    51    34    44    1
    52    36    37    1
    53    36    38    1
    54    36    43    1
    55    38    39    1
    56    38    40    1
    57    38    41    1
    58    41    42    1
    59    41    57    1
    60    41    58    1
    61    42    59    1
    62    43    60    1
    63    44    61    1
    64    47    66    1
    65    48    66    1
    66    53    68    1
    67    54    68    1
    68    62    70    1
    69    63    70    1
    70    64    72    1
    71    65    72    1
    72    66    67    1
    73    68    69    1
    74    70    71    1
    75    72    73    1
