@<TRIPOS>MOLECULE
ZINC03831618
 32 33 0 0 0
SMALL
GASTEIGER

@<TRIPOS>ATOM
      1 C          -2.5510    1.1572    0.0198 C.3     1  UNL1       -0.0332
      2 C          -1.2463    1.9114    0.0183 C.ar    1  UNL1        0.0302
      3 C          -1.2364    3.2615    0.0319 C.ar    1  UNL1        0.0199
      4 N          -0.0428    3.9305    0.0241 N.ar    1  UNL1       -0.2737
      5 C           1.1210    3.2556    0.0089 C.ar    1  UNL1        0.3313
      6 O           2.1701    3.8701    0.0022 O.2     1  UNL1       -0.2464
      7 N           1.1403    1.9098    0.0014 N.ar    1  UNL1       -0.2747
      8 H           2.0145    1.4243   -0.0096 H       1  UNL1        0.1734
      9 C          -0.0144    1.2136    0.0087 C.ar    1  UNL1        0.2568
     10 O           0.0021   -0.0041    0.0020 O.2     1  UNL1       -0.2674
     11 C          -0.0320    5.3955    0.0329 C.3     1  UNL1        0.1420
     12 H           0.4380    5.7762   -0.8739 H       1  UNL1        0.0840
     13 C           0.7080    5.9203    1.2832 C.3     1  UNL1        0.0244
     14 C          -0.0954    7.1738    1.6963 C.3     1  UNL1        0.1617
     15 H           0.5340    8.0626    1.6519 H       1  UNL1        0.0643
     16 C          -1.2257    7.2580    0.6467 C.3     1  UNL1        0.1131
     17 H          -0.9408    7.9275   -0.1649 H       1  UNL1        0.0643
     18 O          -1.3767    5.9074    0.1579 O.3     1  UNL1       -0.3486
     19 C          -2.5242    7.7364    1.2995 C.3     1  UNL1        0.0727
     20 O          -3.5235    7.9189    0.2945 O.3     1  UNL1       -0.3924
     21 N          -0.6542    7.0056    3.0401 N.2     1  UNL1        0.0825
     22 N           0.0301    6.9447    3.9297 N.2     1  UNL1       -0.0144
     23 N           0.7144    6.8838    4.8194 N.2     1  UNL1       -0.3282
     24 H          -2.3513    0.0857    0.0127 H       1  UNL1        0.0280
     25 H          -3.1187    1.4151    0.9139 H       1  UNL1        0.0280
     26 H          -3.1267    1.4254   -0.8660 H       1  UNL1        0.0280
     27 H          -2.1662    3.8108    0.0438 H       1  UNL1        0.0816
     28 H           0.6894    5.1754    2.0788 H       1  UNL1        0.0332
     29 H           1.7353    6.1872    1.0351 H       1  UNL1        0.0332
     30 H          -2.8646    6.9922    2.0195 H       1  UNL1        0.0584
     31 H          -2.3465    8.6823    1.8112 H       1  UNL1        0.0584
     32 H          -4.3753    8.2222    0.6372 H       1  UNL1        0.2095
@<TRIPOS>UNITY_ATOM_ATTR
22 1
charge 1
23 1
charge -1
@<TRIPOS>BOND
     1     1     2    1
     2     1    24    1
     3     1    25    1
     4     1    26    1
     5     2     9   ar
     6     2     3   ar
     7     3     4   ar
     8     3    27    1
     9     4     5   ar
    10     4    11    1
    11     5     6    2
    12     5     7   ar
    13     7     8    1
    14     7     9   ar
    15     9    10    2
    16    11    12    1
    17    11    18    1
    18    11    13    1
    19    13    14    1
    20    13    28    1
    21    13    29    1
    22    14    15    1
    23    14    16    1
    24    14    21    1
    25    16    17    1
    26    16    18    1
    27    16    19    1
    28    19    20    1
    29    19    30    1
    30    19    31    1
    31    20    32    1
    32    21    22    2
    33    22    23    2
