@<TRIPOS>MOLECULE
ZINC11592634
 57 60 0 0 0
SMALL
GASTEIGER

@<TRIPOS>ATOM
      1 C          -3.1463    6.0630    1.6512 C.3     1  UNL1       -0.0594
      2 C          -3.5453    5.1155    2.7857 C.3     1  UNL1       -0.0071
      3 H          -4.3456    5.5742    3.3739 H       1  UNL1        0.0330
      4 C          -4.0157    3.7653    2.2239 C.3     1  UNL1       -0.0436
      5 C          -2.8591    2.7641    2.4600 C.3     1  UNL1       -0.0263
      6 H          -3.2568    1.7623    2.7144 H       1  UNL1        0.0311
      7 C          -2.0343    2.6872    1.1784 C.3     1  UNL1        0.0003
      8 H          -1.7805    3.6839    0.8318 H       1  UNL1        0.0336
      9 C          -2.8473    1.9612    0.0947 C.3     1  UNL1       -0.0432
     10 C          -2.1405    2.2354   -1.2345 C.3     1  UNL1       -0.0301
     11 C          -0.6850    1.8573   -1.1177 C.2     1  UNL1       -0.0532
     12 C           0.0159    1.8138   -2.2674 C.2     1  UNL1       -0.0148
     13 C           1.4512    1.4473   -2.1934 C.2     1  UNL1        0.1787
     14 O           2.0254    0.9274   -3.1385 O.2     1  UNL1       -0.2879
     15 C           2.1560    1.7956   -0.9373 C.2     1  UNL1       -0.0180
     16 C           1.4338    1.8813    0.1922 C.2     1  UNL1       -0.0674
     17 C          -0.0210    1.5261    0.1714 C.3     1  UNL1        0.0443
     18 C          -0.7588    1.8901    1.4315 C.3     1  UNL1        0.1526
     19 C           0.1087    2.6958    2.3975 C.3     1  UNL1        0.0910
     20 H           1.0173    2.1074    2.6174 H       1  UNL1        0.0626
     21 C          -0.6203    2.9290    3.7077 C.3     1  UNL1       -0.0151
     22 C          -2.0650    3.3362    3.6373 C.3     1  UNL1        0.0096
     23 C          -2.3335    4.8384    3.6964 C.3     1  UNL1        0.1340
     24 C          -1.1662    5.6749    3.2534 C.2     1  UNL1        0.1904
     25 O          -0.8024    5.6426    2.1024 O.2     1  UNL1       -0.2919
     26 C          -0.4497    6.5542    4.2457 C.3     1  UNL1        0.1052
     27 O           0.6153    7.2442    3.5887 O.3     1  UNL1       -0.3874
     28 O          -2.6776    5.2001    5.0476 O.3     1  UNL1       -0.3802
     29 C          -2.7226    2.7440    4.9178 C.3     1  UNL1       -0.0562
     30 O           0.5130    3.9235    1.7949 O.3     1  UNL1       -0.3886
     31 F          -1.1231    0.6949    2.0688 F       1  UNL1       -0.2377
     32 C          -0.0151   -0.0126    0.2007 C.3     1  UNL1       -0.0493
     33 H          -2.3518    5.6077    1.0600 H       1  UNL1        0.0233
     34 H          -4.0106    6.2515    1.0143 H       1  UNL1        0.0233
     35 H          -2.7925    7.0044    2.0715 H       1  UNL1        0.0233
     36 H          -4.2338    3.8578    1.1536 H       1  UNL1        0.0272
     37 H          -4.9240    3.4338    2.7396 H       1  UNL1        0.0272
     38 H          -3.8630    2.3511    0.0612 H       1  UNL1        0.0272
     39 H          -2.8654    0.8907    0.2948 H       1  UNL1        0.0272
     40 H          -2.2174    3.2916   -1.4789 H       1  UNL1        0.0310
     41 H          -2.6000    1.6384   -2.0199 H       1  UNL1        0.0310
     42 H          -0.4596    2.0429   -3.2213 H       1  UNL1        0.0656
     43 H           3.2246    2.0100   -0.9341 H       1  UNL1        0.0653
     44 H           1.9249    2.1972    1.1098 H       1  UNL1        0.0583
     45 H          -0.0555    3.6349    4.3220 H       1  UNL1        0.0297
     46 H          -0.5829    1.9752    4.2752 H       1  UNL1        0.0297
     47 H          -1.0923    7.2187    4.6271 H       1  UNL1        0.0637
     48 H          -0.0433    5.9394    5.0489 H       1  UNL1        0.0637
     49 H           1.1212    7.8300    4.1684 H       1  UNL1        0.2100
     50 H          -2.8632    6.1416    5.1676 H       1  UNL1        0.2108
     51 H          -2.6594    1.6562    4.8888 H       1  UNL1        0.0236
     52 H          -2.2000    3.1149    5.7995 H       1  UNL1        0.0236
     53 H          -3.7690    3.0460    4.9618 H       1  UNL1        0.0236
     54 H           1.0530    4.4841    2.3686 H       1  UNL1        0.2099
     55 H           0.4831   -0.3568    1.1070 H       1  UNL1        0.0242
     56 H          -1.0412   -0.3801    0.1882 H       1  UNL1        0.0242
     57 H           0.5169   -0.3906   -0.6723 H       1  UNL1        0.0242
@<TRIPOS>BOND
     1     1     2    1
     2     1    33    1
     3     1    34    1
     4     1    35    1
     5     2     3    1
     6     2    23    1
     7     2     4    1
     8     4     5    1
     9     4    36    1
    10     4    37    1
    11     5     6    1
    12     5    22    1
    13     5     7    1
    14     7     8    1
    15     7    18    1
    16     7     9    1
    17     9    10    1
    18     9    38    1
    19     9    39    1
    20    10    11    1
    21    10    40    1
    22    10    41    1
    23    11    17    1
    24    11    12    2
    25    12    13    1
    26    12    42    1
    27    13    14    2
    28    13    15    1
    29    15    16    2
    30    15    43    1
    31    16    17    1
    32    16    44    1
    33    17    18    1
    34    17    32    1
    35    18    19    1
    36    18    31    1
    37    19    20    1
    38    19    21    1
    39    19    30    1
    40    21    22    1
    41    21    45    1
    42    21    46    1
    43    22    23    1
    44    22    29    1
    45    23    24    1
    46    23    28    1
    47    24    25    2
    48    24    26    1
    49    26    27    1
    50    26    47    1
    51    26    48    1
    52    27    49    1
    53    28    50    1
    54    29    51    1
    55    29    52    1
    56    29    53    1
    57    30    54    1
    58    32    55    1
    59    32    56    1
    60    32    57    1
