@<TRIPOS>MOLECULE
ZINC00001341
 28 28 0 0 0
SMALL
GASTEIGER

@<TRIPOS>ATOM
      1 C           5.7182    3.6414   -3.4945 C.3     1  UNL1       -0.0108
      2 C           5.0345    3.3129   -2.1658 C.3     1  UNL1        0.0889
      3 N           3.7210    2.7092   -2.4270 N.pl3   1  UNL1       -0.3809
      4 C           3.8951    1.4761   -3.2062 C.3     1  UNL1        0.0813
      5 C           2.8899    3.6541   -3.1849 C.3     1  UNL1        0.0813
      6 C           3.0963    2.4090   -1.2129 C.ar    1  UNL1        0.1491
      7 C           3.7343    2.6922   -0.0191 C.ar    1  UNL1        0.0039
      8 C           3.1190    2.3970    1.1831 C.ar    1  UNL1       -0.0523
      9 C           1.8626    1.8224    1.1947 C.ar    1  UNL1       -0.0198
     10 C           1.2228    1.5324   -0.0014 C.ar    1  UNL1        0.1229
     11 C           1.8423    1.8301   -1.2067 C.ar    1  UNL1        0.0450
     12 O          -0.0110    0.9628    0.0073 O.3     1  UNL1       -0.5066
     13 H           6.6928    4.0893   -3.3007 H       1  UNL1        0.0289
     14 H           5.8473    2.7265   -4.0727 H       1  UNL1        0.0289
     15 H           5.1015    4.3425   -4.0568 H       1  UNL1        0.0289
     16 H           4.9054    4.2278   -1.5876 H       1  UNL1        0.0965
     17 H           5.6512    2.6118   -1.6034 H       1  UNL1        0.0965
     18 H           2.9205    1.0282   -3.4000 H       1  UNL1        0.0931
     19 H           4.3821    1.7102   -4.1528 H       1  UNL1        0.0931
     20 H           4.5118    0.7750   -2.6439 H       1  UNL1        0.0931
     21 H           2.7607    4.5691   -2.6067 H       1  UNL1        0.0931
     22 H           3.3769    3.8882   -4.1315 H       1  UNL1        0.0931
     23 H           1.9152    3.2062   -3.3787 H       1  UNL1        0.0931
     24 H           4.7147    3.1452   -0.0261 H       1  UNL1        0.0681
     25 H           3.6192    2.6195    2.1141 H       1  UNL1        0.0621
     26 H           1.3806    1.5957    2.1343 H       1  UNL1        0.0654
     27 H           1.3444    1.6091   -2.1393 H       1  UNL1        0.0718
     28 H           0.0021   -0.0041    0.0020 H       1  UNL1        0.2921
@<TRIPOS>UNITY_ATOM_ATTR
3 1
charge 1
@<TRIPOS>BOND
     1     1     2    1
     2     1    13    1
     3     1    14    1
     4     1    15    1
     5     2     3    1
     6     2    16    1
     7     2    17    1
     8     3     4    1
     9     3     5    1
    10     3     6    1
    11     4    18    1
    12     4    19    1
    13     4    20    1
    14     5    21    1
    15     5    22    1
    16     5    23    1
    17     6    11   ar
    18     6     7   ar
    19     7     8   ar
    20     7    24    1
    21     8     9   ar
    22     8    25    1
    23     9    10   ar
    24     9    26    1
    25    10    11   ar
    26    10    12    1
    27    11    27    1
    28    12    28    1
