@<TRIPOS>MOLECULE
ZINC14693645
 73 75 0 0 0
SMALL
GASTEIGER

@<TRIPOS>ATOM
      1 C           1.4154   -2.1192    0.7668 C.3     1  UNL1       -0.0621
      2 C           1.5308   -2.7774   -0.6095 C.3     1  UNL1       -0.0405
      3 H           2.4848   -2.5075   -1.0625 H       1  UNL1        0.0301
      4 C           1.4510   -4.2976   -0.4561 C.3     1  UNL1       -0.0501
      5 C           2.6792   -4.7984    0.3065 C.3     1  UNL1       -0.0502
      6 C           2.5995   -6.3186    0.4600 C.3     1  UNL1       -0.0245
      7 C           3.8277   -6.8194    1.2226 C.3     1  UNL1        0.0605
      8 C           3.8689   -6.1686    2.6067 C.3     1  UNL1       -0.0363
      9 C           3.7479   -8.3396    1.3760 C.3     1  UNL1       -0.0363
     10 O           5.0108   -6.4751    0.4989 O.3     1  UNL1       -0.3891
     11 C           0.3870   -2.2943   -1.5034 C.3     1  UNL1       -0.0325
     12 H           0.4136   -2.8102   -2.4633 H       1  UNL1        0.0309
     13 C          -0.9781   -2.5268   -0.8045 C.3     1  UNL1       -0.0489
     14 C          -1.5811   -1.1174   -0.5440 C.3     1  UNL1       -0.0457
     15 C          -0.3420   -0.2198   -0.5150 C.3     1  UNL1       -0.0139
     16 H           0.1962   -0.3351    0.4258 H       1  UNL1        0.0351
     17 C           0.4739   -0.7900   -1.7096 C.3     1  UNL1       -0.0225
     18 C           1.8376   -0.1401   -1.6830 C.3     1  UNL1       -0.0465
     19 C           1.6491    1.3475   -2.0248 C.3     1  UNL1       -0.0488
     20 C           0.7173    2.0429   -1.0342 C.3     1  UNL1       -0.0312
     21 C          -0.5539    1.2313   -0.8298 C.2     1  UNL1       -0.0659
     22 C          -1.7689    1.7704   -0.9291 C.2     1  UNL1       -0.0620
     23 C          -1.9152    3.1944   -1.2390 C.2     1  UNL1       -0.0583
     24 C          -3.1449    3.7400   -1.3394 C.2     1  UNL1       -0.0423
     25 C          -4.3995    2.9136   -1.1386 C.3     1  UNL1       -0.0013
     26 C          -5.3755    3.2340   -2.2753 C.3     1  UNL1        0.0595
     27 H          -4.9301    2.9457   -3.2274 H       1  UNL1        0.0596
     28 C          -5.6802    4.7324   -2.2897 C.3     1  UNL1       -0.0226
     29 C          -4.4154    5.5159   -2.6552 C.3     1  UNL1       -0.0256
     30 C          -3.3338    5.1736   -1.6444 C.2     1  UNL1       -0.0511
     31 C          -2.5906    6.1153   -1.0634 C.2     1  UNL1       -0.0952
     32 O          -6.5892    2.5057   -2.0788 O.3     1  UNL1       -0.3915
     33 C          -0.2248   -0.4184   -3.0190 C.3     1  UNL1       -0.0588
     34 H           0.4043   -2.2548    1.1508 H       1  UNL1        0.0233
     35 H           2.1285   -2.5795    1.4507 H       1  UNL1        0.0233
     36 H           1.6311   -1.0543    0.6795 H       1  UNL1        0.0233
     37 H           0.5486   -4.5602    0.0959 H       1  UNL1        0.0268
     38 H           1.4216   -4.7612   -1.4421 H       1  UNL1        0.0268
     39 H           3.5817   -4.5358   -0.2455 H       1  UNL1        0.0266
     40 H           2.7086   -4.3347    1.2926 H       1  UNL1        0.0266
     41 H           1.6970   -6.5812    1.0120 H       1  UNL1        0.0293
     42 H           2.5701   -6.7822   -0.5261 H       1  UNL1        0.0293
     43 H           2.9665   -6.4312    3.1587 H       1  UNL1        0.0257
     44 H           4.7439   -6.5253    3.1500 H       1  UNL1        0.0257
     45 H           3.9258   -5.0855    2.4974 H       1  UNL1        0.0257
     46 H           3.7185   -8.8032    0.3900 H       1  UNL1        0.0257
     47 H           4.6229   -8.6963    1.9193 H       1  UNL1        0.0257
     48 H           2.8454   -8.6022    1.9280 H       1  UNL1        0.0257
     49 H           5.0526   -6.8541   -0.3897 H       1  UNL1        0.2101
     50 H          -0.8307   -3.0512    0.1396 H       1  UNL1        0.0268
     51 H          -1.6379   -3.1021   -1.4539 H       1  UNL1        0.0268
     52 H          -2.1001   -1.0905    0.4141 H       1  UNL1        0.0271
     53 H          -2.2509   -0.8253   -1.3528 H       1  UNL1        0.0271
     54 H           2.2753   -0.2390   -0.6896 H       1  UNL1        0.0271
     55 H           2.4864   -0.6111   -2.4215 H       1  UNL1        0.0271
     56 H           2.6203    1.8420   -2.0061 H       1  UNL1        0.0268
     57 H           1.2286    1.4312   -3.0269 H       1  UNL1        0.0268
     58 H           0.4559    3.0287   -1.4188 H       1  UNL1        0.0310
     59 H           1.2290    2.1553   -0.0784 H       1  UNL1        0.0310
     60 H          -2.6455    1.1571   -0.7809 H       1  UNL1        0.0617
     61 H          -1.0387    3.8077   -1.3871 H       1  UNL1        0.0620
     62 H          -4.1479    1.8533   -1.1587 H       1  UNL1        0.0338
     63 H          -4.8557    3.1653   -0.1812 H       1  UNL1        0.0338
     64 H          -6.4583    4.9369   -3.0252 H       1  UNL1        0.0293
     65 H          -6.0254    5.0415   -1.3031 H       1  UNL1        0.0293
     66 H          -4.0878    5.2377   -3.6569 H       1  UNL1        0.0314
     67 H          -4.6231    6.5854   -2.6207 H       1  UNL1        0.0314
     68 H          -1.8282    5.8382   -0.3504 H       1  UNL1        0.0538
     69 H          -2.7508    7.1556   -1.3056 H       1  UNL1        0.0538
     70 H          -6.4737    1.5457   -2.0633 H       1  UNL1        0.2098
     71 H          -0.3884    0.6588   -3.0506 H       1  UNL1        0.0235
     72 H           0.3999   -0.7159   -3.8613 H       1  UNL1        0.0235
     73 H          -1.1836   -0.9334   -3.0781 H       1  UNL1        0.0235
@<TRIPOS>BOND
     1     1     2    1
     2     1    34    1
     3     1    35    1
     4     1    36    1
     5     2     3    1
     6     2     4    1
     7     2    11    1
     8     4     5    1
     9     4    37    1
    10     4    38    1
    11     5     6    1
    12     5    39    1
    13     5    40    1
    14     6     7    1
    15     6    41    1
    16     6    42    1
    17     7     8    1
    18     7     9    1
    19     7    10    1
    20     8    43    1
    21     8    44    1
    22     8    45    1
    23     9    46    1
    24     9    47    1
    25     9    48    1
    26    10    49    1
    27    11    12    1
    28    11    17    1
    29    11    13    1
    30    13    14    1
    31    13    50    1
    32    13    51    1
    33    14    15    1
    34    14    52    1
    35    14    53    1
    36    15    16    1
    37    15    21    1
    38    15    17    1
    39    17    18    1
    40    17    33    1
    41    18    19    1
    42    18    54    1
    43    18    55    1
    44    19    20    1
    45    19    56    1
    46    19    57    1
    47    20    21    1
    48    20    58    1
    49    20    59    1
    50    21    22    2
    51    22    23    1
    52    22    60    1
    53    23    24    2
    54    23    61    1
    55    24    30    1
    56    24    25    1
    57    25    26    1
    58    25    62    1
    59    25    63    1
    60    26    27    1
    61    26    28    1
    62    26    32    1
    63    28    29    1
    64    28    64    1
    65    28    65    1
    66    29    30    1
    67    29    66    1
    68    29    67    1
    69    30    31    2
    70    31    68    1
    71    31    69    1
    72    32    70    1
    73    33    71    1
    74    33    72    1
    75    33    73    1
