@<TRIPOS>MOLECULE
ZINC00020243
 25 26 0 0 0
SMALL
GASTEIGER

@<TRIPOS>ATOM
      1 C           0.0545   -2.7852   -0.0140 C.ar    1  UNL1       -0.0505
      2 C           1.2387   -2.0792   -0.0210 C.ar    1  UNL1       -0.0190
      3 C           1.2247   -0.6918   -0.0134 C.ar    1  UNL1        0.1257
      4 C           0.0021   -0.0041    0.0020 C.ar    1  UNL1        0.0393
      5 C          -1.1949   -0.7210    0.0154 C.ar    1  UNL1       -0.0416
      6 C          -1.1674   -2.1103    0.0018 C.ar    1  UNL1       -0.0143
      7 C          -2.4376   -2.8769    0.0102 C.ar    1  UNL1        0.0175
      8 C          -3.4248   -2.5836    0.9488 C.ar    1  UNL1       -0.0486
      9 C          -4.6064   -3.2960    0.9505 C.ar    1  UNL1       -0.0257
     10 C          -4.8094   -4.3093    0.0273 C.ar    1  UNL1        0.1262
     11 C          -3.8304   -4.6092   -0.9051 C.ar    1  UNL1        0.0094
     12 C          -2.6451   -3.8980   -0.9180 C.ar    1  UNL1        0.1338
     13 F          -1.6900   -4.1904   -1.8276 F       1  UNL1       -0.2048
     14 F          -5.9664   -5.0068    0.0366 F       1  UNL1       -0.2054
     15 C          -0.0179    1.4700    0.0101 C.2     1  UNL1        0.0752
     16 O           1.0260    2.0918    0.0035 O.co2   1  UNL1       -0.5445
     17 O           2.3920   -0.0012   -0.0203 O.3     1  UNL1       -0.5061
     18 H           0.0723   -3.8651   -0.0203 H       1  UNL1        0.0625
     19 H           2.1804   -2.6079   -0.0328 H       1  UNL1        0.0654
     20 H          -2.1396   -0.1980    0.0321 H       1  UNL1        0.0631
     21 H          -3.2667   -1.7971    1.6719 H       1  UNL1        0.0625
     22 H          -5.3732   -3.0658    1.6753 H       1  UNL1        0.0646
     23 H          -3.9929   -5.3998   -1.6227 H       1  UNL1        0.0675
     24 H           2.7387    0.1940    0.8610 H       1  UNL1        0.2922
     25 O          -1.1939    2.1278    0.0193 O.co2   1  UNL1       -0.5445
@<TRIPOS>UNITY_ATOM_ATTR
25 1
charge -1
@<TRIPOS>BOND
     1     1     6   ar
     2     1     2   ar
     3     1    18    1
     4     2     3   ar
     5     2    19    1
     6     3     4   ar
     7     3    17    1
     8     4     5   ar
     9     4    15    1
    10     5     6   ar
    11     5    20    1
    12     6     7    1
    13     7    12   ar
    14     7     8   ar
    15     8     9   ar
    16     8    21    1
    17     9    10   ar
    18     9    22    1
    19    10    11   ar
    20    10    14    1
    21    11    12   ar
    22    11    23    1
    23    12    13    1
    24    15    16   ar
    25    15    25   ar
    26    17    24    1
