@<TRIPOS>MOLECULE
ZINC03830475
 39 42 0 0 0
SMALL
GASTEIGER

@<TRIPOS>ATOM
      1 C           6.0978   -2.2167    2.4887 C.ar    1  UNL1        0.1386
      2 N           4.9150   -2.4854    2.9855 N.ar    1  UNL1       -0.1169
      3 N           4.2199   -1.4007    2.9670 N.ar    1  UNL1       -0.0233
      4 N           4.9286   -0.4471    2.4713 N.ar    1  UNL1       -0.0437
      5 N           6.0929   -0.9105    2.1641 N.ar    1  UNL1       -0.2232
      6 C           7.2013   -0.1566    1.5731 C.3     1  UNL1        0.1209
      7 C           6.7356    0.5093    0.3039 C.2     1  UNL1        0.2353
      8 O           5.5906    0.3680   -0.0701 O.2     1  UNL1       -0.2738
      9 N           7.5915    1.2618   -0.4155 N.am    1  UNL1       -0.3002
     10 CA          7.1388    1.9091   -1.6493 C.3     1  UNL1        0.1284
     11 HA          6.0640    2.0900   -1.6633 H       1  UNL1        0.0622
     12 C           7.9693    3.1263   -2.0421 C.3     1  UNL1        0.1041
     13 H           8.8495    3.3139   -1.4271 H       1  UNL1        0.0644
     14 N           8.1913    2.4099   -3.3385 N.am    1  UNL1       -0.2533
     15 C           7.6621    1.2470   -2.9126 C.2     1  UNL1        0.2438
     16 O           7.6203    0.1197   -3.3583 O.2     1  UNL1       -0.2731
     17 CA          8.6406    2.9800   -4.5411 C.2     1  UNL1        0.0607
     18 C           8.5410    4.2857   -4.7388 C.2     1  UNL1       -0.0264
     19 C           8.0334    5.3312   -3.8002 C.3     1  UNL1        0.0195
     20 S           7.0125    4.6190   -2.4728 S.3     1  UNL1       -0.1311
     21 C           8.9987    4.7813   -6.0864 C.3     1  UNL1        0.0242
     22 S          10.6393    5.5296   -5.9286 S.3     1  UNL1       -0.0925
     23 C          10.9196    6.0077   -7.6011 C.ar    1  UNL1        0.1585
     24 N          10.1516    5.8564   -8.6728 N.ar    1  UNL1       -0.1350
     25 N          10.5099    6.2670   -9.8102 N.ar    1  UNL1       -0.1489
     26 C          11.6694    6.8601  -10.0097 C.ar    1  UNL1        0.0895
     27 S          12.3260    6.8301   -8.3442 S.2     1  UNL1       -0.0476
     28 C           9.2261    2.1216   -5.5867 C.2     1  UNL1        0.0860
     29 O           8.7407    1.0326   -5.8210 O.co2   1  UNL1       -0.5433
     30 H           6.9171   -2.9092    2.3635 H       1  UNL1        0.1063
     31 H           7.5412    0.6022    2.2779 H       1  UNL1        0.0606
     32 H           8.0229   -0.8361    1.3465 H       1  UNL1        0.0606
     33 H           8.5073    1.3748   -0.1164 H       1  UNL1        0.1496
     34 H           7.4353    6.0500   -4.3602 H       1  UNL1        0.0423
     35 H           8.8824    5.8498   -3.3547 H       1  UNL1        0.0423
     36 H           9.0464    3.9452   -6.7840 H       1  UNL1        0.0427
     37 H           8.2943    5.5253   -6.4584 H       1  UNL1        0.0427
     38 H          12.1008    7.2525  -10.9187 H       1  UNL1        0.0927
     39 OXT        10.2998    2.5448   -6.2828 O.co2   1  UNL1       -0.5433
@<TRIPOS>UNITY_ATOM_ATTR
39 1
charge -1
@<TRIPOS>BOND
     1     1     5   ar
     2     1     2   ar
     3     1    30    1
     4     2     3   ar
     5     3     4   ar
     6     4     5   ar
     7     5     6    1
     8     6     7    1
     9     6    31    1
    10     6    32    1
    11     7     8    2
    12     7     9   am
    13     9    10    1
    14     9    33    1
    15    10    11    1
    16    10    15    1
    17    10    12    1
    18    12    13    1
    19    12    20    1
    20    12    14    1
    21    14    15   am
    22    14    17    1
    23    15    16    2
    24    17    18    2
    25    17    28    1
    26    18    19    1
    27    18    21    1
    28    19    20    1
    29    19    34    1
    30    19    35    1
    31    21    22    1
    32    21    36    1
    33    21    37    1
    34    22    23    1
    35    23    27   ar
    36    23    24   ar
    37    24    25   ar
    38    25    26   ar
    39    26    27   ar
    40    26    38    1
    41    28    29   ar
    42    28    39   ar
