@<TRIPOS>MOLECULE
ZINC03830902
 54 56 0 0 0
SMALL
GASTEIGER

@<TRIPOS>ATOM
      1 C          -1.0012   -2.2125    7.2189 C.3     1  UNL1       -0.0414
      2 N           0.0128   -1.7459    6.2640 N.4     1  UNL1        0.2417
      3 C           0.2481   -2.7862    5.2401 C.3     1  UNL1       -0.0269
      4 C          -0.6602   -2.3839    4.0515 C.3     1  UNL1        0.0298
      5 C          -0.5494   -0.8368    4.0820 C.3     1  UNL1        0.1472
      6 H           0.3511   -0.5046    3.5656 H       1  UNL1        0.0790
      7 C          -0.4645   -0.5240    5.5908 C.3     1  UNL1        0.0076
      8 O          -1.7295   -0.2260    3.4967 O.3     1  UNL1       -0.4557
      9 C          -1.6888    0.0415    2.1820 C.2     1  UNL1        0.3106
     10 O          -0.6998   -0.2258    1.5415 O.2     1  UNL1       -0.2507
     11 C          -2.8766    0.6753    1.5049 C.3     1  UNL1        0.0781
     12 C          -2.5936    0.8193    0.0082 C.3     1  UNL1        0.1037
     13 C          -1.3198    1.5999   -0.1894 C.ar    1  UNL1       -0.0153
     14 C          -0.1822    0.9619   -0.6474 C.ar    1  UNL1       -0.0558
     15 C           0.9847    1.6791   -0.8341 C.ar    1  UNL1       -0.0614
     16 C           1.0156    3.0331   -0.5573 C.ar    1  UNL1       -0.0617
     17 C          -0.1206    3.6700   -0.0943 C.ar    1  UNL1       -0.0614
     18 C          -1.2877    2.9530    0.0915 C.ar    1  UNL1       -0.0558
     19 C          -3.7538    1.5584   -0.6614 C.3     1  UNL1       -0.0074
     20 C          -5.0579    0.7273   -0.5736 C.3     1  UNL1       -0.0473
     21 C          -5.9162    1.2450   -1.7462 C.3     1  UNL1       -0.0527
     22 C          -4.9406    1.8459   -2.7733 C.3     1  UNL1       -0.0527
     23 C          -3.5235    1.6725   -2.1889 C.3     1  UNL1       -0.0473
     24 O          -2.4536   -0.4769   -0.5769 O.3     1  UNL1       -0.3831
     25 C           1.2657   -1.4607    6.9760 C.3     1  UNL1       -0.0414
     26 H          -0.6411   -3.1101    7.7217 H       1  UNL1        0.0778
     27 H          -1.1905   -1.4335    7.9575 H       1  UNL1        0.0778
     28 H          -1.9245   -2.4401    6.6861 H       1  UNL1        0.0778
     29 H          -0.0383   -3.7661    5.6220 H       1  UNL1        0.0816
     30 H           1.2944   -2.7880    4.9345 H       1  UNL1        0.0816
     31 H          -1.6881   -2.7052    4.2195 H       1  UNL1        0.0355
     32 H          -0.2758   -2.7845    3.1134 H       1  UNL1        0.0355
     33 H           0.2378    0.2918    5.7614 H       1  UNL1        0.0852
     34 H          -1.4501   -0.2531    5.9694 H       1  UNL1        0.0852
     35 H          -3.0585    1.6596    1.9366 H       1  UNL1        0.0409
     36 H          -3.7554    0.0470    1.6497 H       1  UNL1        0.0409
     37 H          -0.2063   -0.0959   -0.8637 H       1  UNL1        0.0621
     38 H           1.8724    1.1815   -1.1959 H       1  UNL1        0.0618
     39 H           1.9275    3.5933   -0.7025 H       1  UNL1        0.0618
     40 H          -0.0962    4.7277    0.1227 H       1  UNL1        0.0618
     41 H          -2.1753    3.4506    0.4536 H       1  UNL1        0.0621
     42 H          -3.8900    2.5442   -0.2167 H       1  UNL1        0.0332
     43 H          -4.8429   -0.3340   -0.6976 H       1  UNL1        0.0269
     44 H          -5.5615    0.9071    0.3762 H       1  UNL1        0.0269
     45 H          -6.6064    2.0116   -1.3939 H       1  UNL1        0.0265
     46 H          -6.4705    0.4210   -2.1955 H       1  UNL1        0.0265
     47 H          -5.1573    2.9042   -2.9193 H       1  UNL1        0.0265
     48 H          -5.0214    1.3135   -3.7210 H       1  UNL1        0.0265
     49 H          -2.9073    2.5420   -2.4179 H       1  UNL1        0.0269
     50 H          -3.0586    0.7647   -2.5734 H       1  UNL1        0.0269
     51 H          -1.7351   -1.0031   -0.2000 H       1  UNL1        0.2106
     52 H           2.0218   -1.1314    6.2633 H       1  UNL1        0.0778
     53 H           1.0944   -0.6757    7.7126 H       1  UNL1        0.0778
     54 H           1.6106   -2.3633    7.4804 H       1  UNL1        0.0778
@<TRIPOS>UNITY_ATOM_ATTR
2 1
charge 1
@<TRIPOS>BOND
     1     1     2    1
     2     1    26    1
     3     1    27    1
     4     1    28    1
     5     2     7    1
     6     2     3    1
     7     2    25    1
     8     3     4    1
     9     3    29    1
    10     3    30    1
    11     4     5    1
    12     4    31    1
    13     4    32    1
    14     5     6    1
    15     5     7    1
    16     5     8    1
    17     7    33    1
    18     7    34    1
    19     8     9    1
    20     9    10    2
    21     9    11    1
    22    11    12    1
    23    11    35    1
    24    11    36    1
    25    12    13    1
    26    12    19    1
    27    12    24    1
    28    13    18   ar
    29    13    14   ar
    30    14    15   ar
    31    14    37    1
    32    15    16   ar
    33    15    38    1
    34    16    17   ar
    35    16    39    1
    36    17    18   ar
    37    17    40    1
    38    18    41    1
    39    19    23    1
    40    19    20    1
    41    19    42    1
    42    20    21    1
    43    20    43    1
    44    20    44    1
    45    21    22    1
    46    21    45    1
    47    21    46    1
    48    22    23    1
    49    22    47    1
    50    22    48    1
    51    23    49    1
    52    23    50    1
    53    24    51    1
    54    25    52    1
    55    25    53    1
    56    25    54    1
