@<TRIPOS>MOLECULE
ZINC01530635
 42 43 0 0 0
SMALL
GASTEIGER

@<TRIPOS>ATOM
      1 C          10.2700    3.2832   -0.2236 C.3     1  UNL1        0.0332
      2 C           8.8146    2.9256   -0.0662 C.2     1  UNL1        0.3040
      3 O           7.9607    3.6693   -0.4878 O.2     1  UNL1       -0.2512
      4 O           8.4667    1.7809    0.5424 O.3     1  UNL1       -0.4644
      5 C           7.0466    1.5013    0.6586 C.3     1  UNL1        0.0984
      6 C           6.8471    0.1640    1.3747 C.3     1  UNL1        0.0291
      7 C           5.3589   -0.1909    1.3870 C.3     1  UNL1       -0.0258
      8 C           4.8783   -0.4238   -0.0468 C.3     1  UNL1        0.0265
      9 N           3.4533   -0.7636   -0.0350 N.ar    1  UNL1       -0.3149
     10 C           2.9236   -2.0203   -0.0367 C.ar    1  UNL1        0.0982
     11 N           1.6243   -1.9574   -0.0240 N.ar    1  UNL1       -0.2326
     12 C           1.2348   -0.6580   -0.0133 C.ar    1  UNL1        0.1260
     13 C           2.4072    0.1243   -0.0203 C.ar    1  UNL1        0.1653
     14 N           2.3007    1.4461   -0.0118 N.ar    1  UNL1       -0.1950
     15 C           1.1091    2.0217    0.0023 C.ar    1  UNL1        0.2145
     16 N          -0.0158    1.3176    0.0093 N.ar    1  UNL1       -0.2209
     17 C           0.0021   -0.0041    0.0020 C.ar    1  UNL1        0.0602
     18 N           1.0335    3.4051    0.0100 N.pl3   1  UNL1       -0.3274
     19 C           7.3570    0.2745    2.8130 C.3     1  UNL1        0.0984
     20 O           8.7922    0.4941    2.8022 O.3     1  UNL1       -0.4644
     21 C           9.3994    0.6139    3.9933 C.2     1  UNL1        0.3040
     22 O           8.7529    0.5379    5.0112 O.2     1  UNL1       -0.2512
     23 C          10.8873    0.8434    4.0610 C.3     1  UNL1        0.0332
     24 H          10.8865    2.4982    0.2145 H       1  UNL1        0.0342
     25 H          10.5072    3.3828   -1.2828 H       1  UNL1        0.0342
     26 H          10.4692    4.2272    0.2836 H       1  UNL1        0.0342
     27 H           6.6037    1.4505   -0.3360 H       1  UNL1        0.0701
     28 H           6.5657    2.2949    1.2305 H       1  UNL1        0.0701
     29 H           7.4020   -0.6147    0.8513 H       1  UNL1        0.0367
     30 H           4.7937    0.6284    1.8311 H       1  UNL1        0.0287
     31 H           5.2063   -1.0972    1.9730 H       1  UNL1        0.0287
     32 H           5.4435   -1.2431   -0.4909 H       1  UNL1        0.0493
     33 H           5.0309    0.4825   -0.6329 H       1  UNL1        0.0493
     34 H           3.4988   -2.9343   -0.0468 H       1  UNL1        0.1029
     35 H          -0.9196   -0.5671    0.0074 H       1  UNL1        0.0853
     36 H           0.1683    3.8435    0.0203 H       1  UNL1        0.1452
     37 H           1.8458    3.9352    0.0051 H       1  UNL1        0.1452
     38 H           6.8652    1.1110    3.3095 H       1  UNL1        0.0701
     39 H           7.1346   -0.6480    3.3492 H       1  UNL1        0.0701
     40 H          11.0904    1.9142    4.0544 H       1  UNL1        0.0342
     41 H          11.2812    0.4044    4.9776 H       1  UNL1        0.0342
     42 H          11.3663    0.3773    3.1999 H       1  UNL1        0.0342
@<TRIPOS>BOND
     1     1     2    1
     2     1    24    1
     3     1    25    1
     4     1    26    1
     5     2     3    2
     6     2     4    1
     7     4     5    1
     8     5     6    1
     9     5    27    1
    10     5    28    1
    11     6     7    1
    12     6    19    1
    13     6    29    1
    14     7     8    1
    15     7    30    1
    16     7    31    1
    17     8     9    1
    18     8    32    1
    19     8    33    1
    20     9    13   ar
    21     9    10   ar
    22    10    11   ar
    23    10    34    1
    24    11    12   ar
    25    12    17   ar
    26    12    13   ar
    27    13    14   ar
    28    14    15   ar
    29    15    16   ar
    30    15    18    1
    31    16    17   ar
    32    17    35    1
    33    18    36    1
    34    18    37    1
    35    19    20    1
    36    19    38    1
    37    19    39    1
    38    20    21    1
    39    21    22    2
    40    21    23    1
    41    23    40    1
    42    23    41    1
    43    23    42    1
