@<TRIPOS>MOLECULE
ZINC00020251
 41 43 0 0 0
SMALL
GASTEIGER

@<TRIPOS>ATOM
      1 C          -4.9910    8.0280   -0.3371 C.3     1  UNL1       -0.0397
      2 C          -3.6816    7.2883   -0.2401 C.ar    1  UNL1       -0.0503
      3 C          -2.8219    7.5429    0.8127 C.ar    1  UNL1       -0.0571
      4 C          -1.6216    6.8662    0.9052 C.ar    1  UNL1       -0.0401
      5 C          -1.2780    5.9292   -0.0612 C.ar    1  UNL1        0.0345
      6 C          -2.1415    5.6800   -1.1206 C.ar    1  UNL1       -0.0401
      7 C          -3.3428    6.3562   -1.2039 C.ar    1  UNL1       -0.0571
      8 N          -0.0643    5.2431    0.0290 N.pl3   1  UNL1       -0.2884
      9 C           1.1977    5.9561   -0.1836 C.3     1  UNL1        0.1157
     10 C           1.5651    5.9025   -1.6442 C.2     1  UNL1        0.2564
     11 C           1.4544    5.4246   -3.8499 C.3     1  UNL1        0.1197
     12 C           2.7388    6.2386   -3.5933 C.3     1  UNL1        0.1150
     13 N           2.6936    6.4827   -2.1414 N.pl3   1  UNL1       -0.2356
     14 C          -0.0541    3.8771    0.3219 C.ar    1  UNL1        0.0379
     15 C           1.1426    3.1705    0.3042 C.ar    1  UNL1       -0.0401
     16 C           1.1524    1.8201    0.5938 C.ar    1  UNL1       -0.0566
     17 C          -0.0269    1.1679    0.9010 C.ar    1  UNL1       -0.0201
     18 C          -1.2256    1.8670    0.9147 C.ar    1  UNL1        0.1186
     19 C          -1.2392    3.2236    0.6307 C.ar    1  UNL1        0.0012
     20 O          -2.3849    1.2229    1.2114 O.3     1  UNL1       -0.5067
     21 H          -4.8496    8.9432   -0.9120 H       1  UNL1        0.0278
     22 H          -5.7286    7.3974   -0.8336 H       1  UNL1        0.0278
     23 H          -5.3419    8.2783    0.6640 H       1  UNL1        0.0278
     24 H          -3.0896    8.2714    1.5637 H       1  UNL1        0.0621
     25 H          -0.9509    7.0650    1.7281 H       1  UNL1        0.0636
     26 H          -1.8755    4.9555   -1.8760 H       1  UNL1        0.0636
     27 H          -4.0165    6.1598   -2.0248 H       1  UNL1        0.0621
     28 H           1.0842    6.9954    0.1246 H       1  UNL1        0.0591
     29 H           1.9845    5.4860    0.4064 H       1  UNL1        0.0591
     30 H           0.7921    5.9593   -4.5308 H       1  UNL1        0.0782
     31 H           1.6985    4.4403   -4.2494 H       1  UNL1        0.0782
     32 H           2.7150    7.1795   -4.1431 H       1  UNL1        0.0764
     33 H           3.6239    5.6608   -3.8594 H       1  UNL1        0.0764
     34 H           3.3543    6.9723   -1.6270 H       1  UNL1        0.2911
     35 H           2.0654    3.6776    0.0642 H       1  UNL1        0.0636
     36 H           2.0833    1.2727    0.5799 H       1  UNL1        0.0619
     37 H          -0.0160    0.1117    1.1264 H       1  UNL1        0.0654
     38 H          -2.1705    3.7703    0.6456 H       1  UNL1        0.0673
     39 H          -2.6034    1.2204    2.1534 H       1  UNL1        0.2921
     40 N           0.8398    5.3004   -2.5175 N.2     1  UNL1       -0.2744
     41 H          -0.0375    4.8063   -2.3163 H       1  UNL1        0.3037
@<TRIPOS>UNITY_ATOM_ATTR
40 1
charge 1
@<TRIPOS>BOND
     1     1     2    1
     2     1    21    1
     3     1    22    1
     4     1    23    1
     5     2     7   ar
     6     2     3   ar
     7     3     4   ar
     8     3    24    1
     9     4     5   ar
    10     4    25    1
    11     5     6   ar
    12     5     8    1
    13     6     7   ar
    14     6    26    1
    15     7    27    1
    16     8     9    1
    17     8    14    1
    18     9    10    1
    19     9    28    1
    20     9    29    1
    21    10    13    1
    22    10    40    2
    23    11    12    1
    24    11    30    1
    25    11    31    1
    26    11    40    1
    27    12    13    1
    28    12    32    1
    29    12    33    1
    30    13    34    1
    31    14    19   ar
    32    14    15   ar
    33    15    16   ar
    34    15    35    1
    35    16    17   ar
    36    16    36    1
    37    17    18   ar
    38    17    37    1
    39    18    19   ar
    40    18    20    1
    41    19    38    1
    42    20    39    1
    43    40    41    1
