@<TRIPOS>MOLECULE
ZINC01530820
 50 49 0 0 0
SMALL
GASTEIGER

@<TRIPOS>ATOM
      1 C           3.1335    1.8371    1.7800 C.3     1  UNL1       -0.0417
      2 N           2.7507    3.0435    1.0344 N.4     1  UNL1        0.2393
      3 C           3.6862    4.1314    1.3495 C.3     1  UNL1       -0.0417
      4 C           1.3892    3.4429    1.4149 C.3     1  UNL1       -0.0417
      5 C           2.7938    2.7627   -0.4069 C.3     1  UNL1        0.0042
      6 C           1.9255    1.5411   -0.7147 C.3     1  UNL1        0.1321
      7 O           0.5323    1.8609   -0.4595 O.3     1  UNL1       -0.4592
      8 C          -0.3666    0.8892   -0.6820 C.2     1  UNL1        0.3078
      9 O          -0.0014   -0.1928   -1.0767 O.2     1  UNL1       -0.2508
     10 C          -1.8319    1.1497   -0.4452 C.3     1  UNL1        0.0550
     11 C          -2.6342   -0.1098   -0.7785 C.3     1  UNL1        0.0550
     12 C          -4.0995    0.1507   -0.5417 C.2     1  UNL1        0.3078
     13 O          -4.4647    1.2327   -0.1469 O.2     1  UNL1       -0.2508
     14 O          -4.9989   -0.8193   -0.7694 O.3     1  UNL1       -0.4592
     15 C          -6.3927   -0.4976   -0.5198 C.3     1  UNL1        0.1321
     16 C          -7.2616   -1.7174   -0.8331 C.3     1  UNL1        0.0042
     17 N          -6.9655   -2.7891    0.1270 N.4     1  UNL1        0.2393
     18 C          -7.1257   -2.2789    1.4951 C.3     1  UNL1       -0.0417
     19 C          -7.8906   -3.9095   -0.0893 C.3     1  UNL1       -0.0417
     20 C          -5.5841   -3.2506   -0.0650 C.3     1  UNL1       -0.0417
     21 H           4.1437    1.5407    1.4976 H       1  UNL1        0.0778
     22 H           3.1015    2.0454    2.8494 H       1  UNL1        0.0778
     23 H           2.4393    1.0299    1.5462 H       1  UNL1        0.0778
     24 H           3.4022    5.0265    0.7963 H       1  UNL1        0.0778
     25 H           3.6542    4.3397    2.4189 H       1  UNL1        0.0778
     26 H           4.6964    3.8350    1.0672 H       1  UNL1        0.0778
     27 H           0.7301    2.5759    1.3694 H       1  UNL1        0.0778
     28 H           1.3974    3.8402    2.4299 H       1  UNL1        0.0778
     29 H           1.0298    4.2089    0.7278 H       1  UNL1        0.0778
     30 H           3.8222    2.5625   -0.7074 H       1  UNL1        0.0849
     31 H           2.4159    3.6248   -0.9565 H       1  UNL1        0.0849
     32 H           2.2297    0.7096   -0.0789 H       1  UNL1        0.0752
     33 H           2.0485    1.2623   -1.7612 H       1  UNL1        0.0752
     34 H          -1.9895    1.4148    0.6002 H       1  UNL1        0.0383
     35 H          -2.1626    1.9702   -1.0820 H       1  UNL1        0.0383
     36 H          -2.4765   -0.3749   -1.8239 H       1  UNL1        0.0383
     37 H          -2.3035   -0.9303   -0.1417 H       1  UNL1        0.0383
     38 H          -6.5198   -0.2201    0.5266 H       1  UNL1        0.0752
     39 H          -6.6929    0.3353   -1.1557 H       1  UNL1        0.0752
     40 H          -8.3138   -1.4429   -0.7581 H       1  UNL1        0.0849
     41 H          -7.0480   -2.0657   -1.8437 H       1  UNL1        0.0849
     42 H          -8.1506   -1.9364    1.6376 H       1  UNL1        0.0778
     43 H          -6.9060   -3.0741    2.2075 H       1  UNL1        0.0778
     44 H          -6.4392   -1.4475    1.6556 H       1  UNL1        0.0778
     45 H          -7.7718   -4.2881   -1.1045 H       1  UNL1        0.0778
     46 H          -7.6709   -4.7048    0.6231 H       1  UNL1        0.0778
     47 H          -8.9156   -3.5671    0.0531 H       1  UNL1        0.0778
     48 H          -4.8930   -2.4840    0.2854 H       1  UNL1        0.0778
     49 H          -5.4258   -4.1686    0.5010 H       1  UNL1        0.0778
     50 H          -5.4087   -3.4416   -1.1237 H       1  UNL1        0.0778
@<TRIPOS>UNITY_ATOM_ATTR
2 1
charge 1
17 1
charge 1
@<TRIPOS>BOND
     1     1     2    1
     2     1    21    1
     3     1    22    1
     4     1    23    1
     5     2     3    1
     6     2     4    1
     7     2     5    1
     8     3    24    1
     9     3    25    1
    10     3    26    1
    11     4    27    1
    12     4    28    1
    13     4    29    1
    14     5     6    1
    15     5    30    1
    16     5    31    1
    17     6     7    1
    18     6    32    1
    19     6    33    1
    20     7     8    1
    21     8     9    2
    22     8    10    1
    23    10    11    1
    24    10    34    1
    25    10    35    1
    26    11    12    1
    27    11    36    1
    28    11    37    1
    29    12    13    2
    30    12    14    1
    31    14    15    1
    32    15    16    1
    33    15    38    1
    34    15    39    1
    35    16    17    1
    36    16    40    1
    37    16    41    1
    38    17    18    1
    39    17    19    1
    40    17    20    1
    41    18    42    1
    42    18    43    1
    43    18    44    1
    44    19    45    1
    45    19    46    1
    46    19    47    1
    47    20    48    1
    48    20    49    1
    49    20    50    1
