@<TRIPOS>MOLECULE
ZINC03830266
 44 45 0 0 0
SMALL
GASTEIGER

@<TRIPOS>ATOM
      1 C          -0.6844    8.3443   -3.1548 C.3     1  UNL1       -0.0424
      2 C          -1.0342    7.1556   -2.2573 C.3     1  UNL1        0.0749
      3 H          -0.8054    6.1989   -2.7267 H       1  UNL1        0.0540
      4 C          -0.4591    7.2812   -0.8464 C.3     1  UNL1        0.1216
      5 H           0.0655    6.3932   -0.4937 H       1  UNL1        0.0614
      6 C          -1.9163    7.3387   -0.4718 C.2     1  UNL1        0.2586
      7 O          -2.4723    7.4526    0.6000 O.2     1  UNL1       -0.2718
      8 N          -2.3956    7.2213   -1.7241 N.am    1  UNL1       -0.1456
      9 S          -3.9106    7.1767   -2.3913 S.O2    1  UNL1        0.1688
     10 O          -3.7731    7.6025   -3.7400 O.2     1  UNL1       -0.1264
     11 O          -4.7784    7.8259   -1.4722 O.2     1  UNL1       -0.1264
     12 O          -4.3392    5.7170   -2.4375 O.3     1  UNL1       -0.2376
     13 N           0.2734    8.5259   -0.6005 N.am    1  UNL1       -0.2969
     14 C           1.2469    8.5622    0.3308 C.2     1  UNL1        0.2684
     15 O           1.6032    7.5372    0.8775 O.2     1  UNL1       -0.2683
     16 C           1.8829    9.8521    0.6880 C.2     1  UNL1        0.1898
     17 N           2.8915    9.8749    1.5124 N.2     1  UNL1       -0.0767
     18 O           3.4475    8.6613    1.9847 O.2     1  UNL1       -0.3812
     19 C           4.4717    8.8342    2.9660 C.3     1  UNL1        0.1718
     20 C           5.5744    9.7311    2.3997 C.3     1  UNL1       -0.0172
     21 C           3.8760    9.4857    4.2156 C.3     1  UNL1       -0.0172
     22 C           5.0526    7.4916    3.3279 C.2     1  UNL1        0.0871
     23 O           4.6948    6.4997    2.7379 O.co2   1  UNL1       -0.5457
     24 C           1.3728   11.1134    0.1087 C.ar    1  UNL1        0.1067
     25 C           2.0556   12.2862    0.2915 C.ar    1  UNL1        0.0067
     26 S           1.0056   13.4260   -0.6000 S.2     1  UNL1       -0.0604
     27 C          -0.2250   12.2397   -1.1218 C.ar    1  UNL1        0.1562
     28 N           0.2460   11.1219   -0.6022 N.ar    1  UNL1       -0.2233
     29 N          -1.3686   12.4399   -1.8764 N.pl3   1  UNL1       -0.3375
     30 H          -0.7854    9.2698   -2.5879 H       1  UNL1        0.0249
     31 H           0.3423    8.2441   -3.5068 H       1  UNL1        0.0249
     32 H          -1.3609    8.3660   -4.0092 H       1  UNL1        0.0249
     33 H          -5.2189    5.5772   -2.8137 H       1  UNL1        0.2463
     34 H           0.0576    9.3239   -1.1079 H       1  UNL1        0.1499
     35 H           5.1542   10.7022    2.1380 H       1  UNL1        0.0273
     36 H           6.3556    9.8630    3.1483 H       1  UNL1        0.0273
     37 H           5.9988    9.2670    1.5095 H       1  UNL1        0.0273
     38 H           3.0904    8.8468    4.6191 H       1  UNL1        0.0273
     39 H           4.6572    9.6176    4.9642 H       1  UNL1        0.0273
     40 H           3.4558   10.4568    3.9539 H       1  UNL1        0.0273
     41 H           2.9749   12.4717    0.8270 H       1  UNL1        0.0716
     42 H          -1.5883   13.3283   -2.1978 H       1  UNL1        0.1442
     43 H          -1.9501   11.6916   -2.0837 H       1  UNL1        0.1442
     44 O           5.9674    7.3976    4.3056 O.co2   1  UNL1       -0.5457
@<TRIPOS>UNITY_ATOM_ATTR
44 1
charge -1
@<TRIPOS>BOND
     1     1     2    1
     2     1    30    1
     3     1    31    1
     4     1    32    1
     5     2     3    1
     6     2     8    1
     7     2     4    1
     8     4     5    1
     9     4     6    1
    10     4    13    1
    11     6     7    2
    12     6     8   am
    13     8     9    1
    14     9    10    2
    15     9    11    2
    16     9    12    1
    17    12    33    1
    18    13    14   am
    19    13    34    1
    20    14    15    2
    21    14    16    1
    22    16    17    2
    23    16    24    1
    24    17    18    1
    25    18    19    1
    26    19    20    1
    27    19    21    1
    28    19    22    1
    29    20    35    1
    30    20    36    1
    31    20    37    1
    32    21    38    1
    33    21    39    1
    34    21    40    1
    35    22    23   ar
    36    22    44   ar
    37    24    28   ar
    38    24    25   ar
    39    25    26   ar
    40    25    41    1
    41    26    27   ar
    42    27    28   ar
    43    27    29    1
    44    29    42    1
    45    29    43    1
