@<TRIPOS>MOLECULE
ZINC00039906
 28 29 0 0 0
SMALL
GASTEIGER

@<TRIPOS>ATOM
      1 C           5.2152    2.8690   -4.4009 C.ar    1  UNL1       -0.0056
      2 C           4.8557    2.6999   -3.1064 C.ar    1  UNL1        0.0151
      3 N           3.5429    2.8126   -2.7592 N.ar    1  UNL1       -0.2726
      4 C           2.6155    3.0997   -3.6911 C.ar    1  UNL1        0.3521
      5 O           1.4454    3.2018   -3.3615 O.2     1  UNL1       -0.2444
      6 N           2.9543    3.2747   -4.9672 N.ar    1  UNL1       -0.1783
      7 C           4.2192    3.1694   -5.3527 C.ar    1  UNL1        0.1230
      8 N           4.5574    3.3526   -6.6735 N.pl3   1  UNL1       -0.3430
      9 C           3.1397    2.6261   -1.3632 C.3     1  UNL1        0.1398
     10 H           3.9838    2.2765   -0.7687 H       1  UNL1        0.0839
     11 C           2.5832    3.9454   -0.7833 C.3     1  UNL1       -0.0048
     12 C           1.4245    3.4933    0.1334 C.3     1  UNL1       -0.0203
     13 C           1.4181    1.9544   -0.0010 C.3     1  UNL1        0.0843
     14 H           1.9953    1.5007    0.8047 H       1  UNL1        0.0620
     15 O           2.0408    1.6928   -1.2776 O.3     1  UNL1       -0.3510
     16 C          -0.0173    1.4248    0.0099 C.3     1  UNL1        0.0705
     17 O           0.0021   -0.0041    0.0020 O.3     1  UNL1       -0.3925
     18 H           6.2495    2.7803   -4.6988 H       1  UNL1        0.0666
     19 H           5.6009    2.4742   -2.3579 H       1  UNL1        0.0812
     20 H           4.0782    2.6794   -7.2367 H       1  UNL1        0.1437
     21 H           5.4832    3.2750   -6.9524 H       1  UNL1        0.1437
     22 H           2.2103    4.5864   -1.5821 H       1  UNL1        0.0309
     23 H           3.3492    4.4613   -0.2044 H       1  UNL1        0.0309
     24 H           0.4789    3.9108   -0.2122 H       1  UNL1        0.0292
     25 H           1.6178    3.7857    1.1656 H       1  UNL1        0.0292
     26 H          -0.5445    1.7859   -0.8732 H       1  UNL1        0.0583
     27 H          -0.5275    1.7763    0.9067 H       1  UNL1        0.0583
     28 H          -0.8759   -0.4094    0.0082 H       1  UNL1        0.2095
@<TRIPOS>BOND
     1     1     7   ar
     2     1     2   ar
     3     1    18    1
     4     2     3   ar
     5     2    19    1
     6     3     4   ar
     7     3     9    1
     8     4     5    2
     9     4     6   ar
    10     6     7   ar
    11     7     8    1
    12     8    20    1
    13     8    21    1
    14     9    10    1
    15     9    15    1
    16     9    11    1
    17    11    12    1
    18    11    22    1
    19    11    23    1
    20    12    13    1
    21    12    24    1
    22    12    25    1
    23    13    14    1
    24    13    15    1
    25    13    16    1
    26    16    17    1
    27    16    26    1
    28    16    27    1
    29    17    28    1
