@<TRIPOS>MOLECULE
ZINC01639567
 22 23 0 0 0
SMALL
GASTEIGER

@<TRIPOS>ATOM
      1 C           1.1563    3.1654    0.0076 C.ar    1  UNL1       -0.0617
      2 C           1.1750    1.7832    0.0004 C.ar    1  UNL1       -0.0615
      3 C          -0.0126    1.0758    0.0080 C.ar    1  UNL1       -0.0581
      4 C          -1.2190    1.7506    0.0173 C.ar    1  UNL1       -0.0388
      5 C          -1.2377    3.1328    0.0303 C.ar    1  UNL1       -0.0581
      6 C          -0.0501    3.8402    0.0228 C.ar    1  UNL1       -0.0615
      7 C          -2.5137    0.9795    0.0193 C.3     1  UNL1        0.0321
      8 H          -2.4621   -0.0249    0.4396 H       1  UNL1        0.0406
      9 C          -3.8063    1.7697    0.2332 C.3     1  UNL1        0.0027
     10 C          -3.4735    1.2073   -1.1502 C.3     1  UNL1       -0.0165
     11 H          -4.0535    0.3530   -1.4991 H       1  UNL1        0.0856
     12 H           2.0841    3.7181    0.0017 H       1  UNL1        0.0618
     13 H           2.1175    1.2560   -0.0115 H       1  UNL1        0.0618
     14 H           0.0021   -0.0041    0.0020 H       1  UNL1        0.0620
     15 H          -2.1802    3.6600    0.0425 H       1  UNL1        0.0620
     16 H          -0.0647    4.9201    0.0291 H       1  UNL1        0.0618
     17 H          -4.6053    1.2853    0.7945 H       1  UNL1        0.0328
     18 H          -3.7202    2.8473    0.3725 H       1  UNL1        0.0328
     19 H          -3.7645    2.2356   -2.9099 H       1  UNL1        0.1997
     20 H          -2.8568    3.0646   -1.7897 H       1  UNL1        0.1997
     21 N          -3.0414    2.1496   -2.1976 N.4     1  UNL1        0.2212
     22 H          -2.1813    1.7977   -2.6341 H       1  UNL1        0.1997
@<TRIPOS>UNITY_ATOM_ATTR
21 1
charge 1
@<TRIPOS>BOND
     1     1     6   ar
     2     1     2   ar
     3     1    12    1
     4     2     3   ar
     5     2    13    1
     6     3     4   ar
     7     3    14    1
     8     4     5   ar
     9     4     7    1
    10     5     6   ar
    11     5    15    1
    12     6    16    1
    13     7     8    1
    14     7    10    1
    15     7     9    1
    16     9    10    1
    17     9    17    1
    18     9    18    1
    19    10    11    1
    20    10    21    1
    21    19    21    1
    22    20    21    1
    23    21    22    1
