@<TRIPOS>MOLECULE
ZINC02040148
 29 29 0 0 0
SMALL
GASTEIGER

@<TRIPOS>ATOM
      1 C          -0.3583    9.3669    2.8156 C.3     1  UNL1       -0.0245
      2 C          -0.3362    7.8374    2.8483 C.3     1  UNL1       -0.0365
      3 C          -0.1966    5.8511    1.4708 C.3     1  UNL1       -0.0028
      4 C          -0.0759    5.3505    0.0300 C.3     1  UNL1        0.1198
      5 H           0.8452    5.7314   -0.4110 H       1  UNL1        0.0698
      6 C          -0.0511    3.8437    0.0222 C.ar    1  UNL1       -0.0106
      7 C          -1.2374    3.1332    0.0293 C.ar    1  UNL1       -0.0557
      8 C          -1.2180    1.7509    0.0173 C.ar    1  UNL1       -0.0580
      9 C          -0.0126    1.0758    0.0080 C.ar    1  UNL1       -0.0202
     10 C           1.1788    1.7862    0.0004 C.ar    1  UNL1        0.1172
     11 C           1.1566    3.1736    0.0076 C.ar    1  UNL1       -0.0144
     12 O           2.3657    1.1246   -0.0136 O.3     1  UNL1       -0.5068
     13 O          -1.1944    5.8124   -0.7300 O.3     1  UNL1       -0.3819
     14 H          -0.4439    9.7509    3.8321 H       1  UNL1        0.0281
     15 H           0.5639    9.7340    2.3650 H       1  UNL1        0.0281
     16 H          -1.2105    9.7055    2.2263 H       1  UNL1        0.0281
     17 H          -1.2584    7.4703    3.2989 H       1  UNL1        0.0811
     18 H           0.5159    7.4989    3.4376 H       1  UNL1        0.0811
     19 H          -1.1178    5.4703    1.9118 H       1  UNL1        0.0843
     20 H           0.6565    5.4988    2.0505 H       1  UNL1        0.0843
     21 H          -2.1807    3.6590    0.0407 H       1  UNL1        0.0621
     22 H          -2.1459    1.1983    0.0191 H       1  UNL1        0.0619
     23 H           0.0021   -0.0041    0.0020 H       1  UNL1        0.0654
     24 H           2.0828    3.7290    0.0014 H       1  UNL1        0.0658
     25 H           2.7012    0.9372   -0.9010 H       1  UNL1        0.2921
     26 H          -2.0497    5.5112   -0.3940 H       1  UNL1        0.2105
     27 N          -0.2202    7.3260    1.4696 N.4     1  UNL1        0.2289
     28 H           0.6480    7.6783    1.0496 H       1  UNL1        0.2014
     29 H          -1.0234    7.6515    0.9190 H       1  UNL1        0.2014
@<TRIPOS>UNITY_ATOM_ATTR
27 1
charge 1
@<TRIPOS>BOND
     1     1     2    1
     2     1    14    1
     3     1    15    1
     4     1    16    1
     5     2    17    1
     6     2    18    1
     7     2    27    1
     8     3     4    1
     9     3    19    1
    10     3    20    1
    11     3    27    1
    12     4     5    1
    13     4     6    1
    14     4    13    1
    15     6    11   ar
    16     6     7   ar
    17     7     8   ar
    18     7    21    1
    19     8     9   ar
    20     8    22    1
    21     9    10   ar
    22     9    23    1
    23    10    11   ar
    24    10    12    1
    25    11    24    1
    26    12    25    1
    27    13    26    1
    28    27    28    1
    29    27    29    1
