@<TRIPOS>MOLECULE
ZINC03831004
 53 55 0 0 0
SMALL
GASTEIGER

@<TRIPOS>ATOM
      1 C          -3.1934    0.9918    0.0282 C.3     1  UNL1       -0.0426
      2 C          -3.0194    1.0986   -2.3840 C.3     1  UNL1       -0.0182
      3 H          -3.8934    0.4493   -2.4339 H       1  UNL1        0.0852
      4 C          -2.0971    0.8043   -3.5693 C.3     1  UNL1       -0.0094
      5 C          -0.8614    1.7044   -3.4840 C.3     1  UNL1       -0.0429
      6 C          -0.1558    1.4640   -2.1465 C.3     1  UNL1       -0.0090
      7 C          -1.1344    1.7392   -1.0025 C.3     1  UNL1       -0.0137
      8 H          -1.4621    2.7779   -1.0470 H       1  UNL1        0.0855
      9 C          -0.4395    1.4809    0.3359 C.3     1  UNL1        0.0535
     10 C           0.6593    2.4928    0.5350 C.2     1  UNL1        0.1685
     11 O           0.8039    3.3954   -0.2616 O.2     1  UNL1       -0.2918
     12 C           1.5570    2.3855    1.6963 C.ar    1  UNL1        0.0176
     13 C           1.3898    1.3492    2.6204 C.ar    1  UNL1       -0.0513
     14 C           2.2386    1.2521    3.7028 C.ar    1  UNL1       -0.0611
     15 C           3.2463    2.1837    3.8824 C.ar    1  UNL1       -0.0617
     16 C           3.4145    3.2154    2.9753 C.ar    1  UNL1       -0.0611
     17 C           2.5779    3.3225    1.8845 C.ar    1  UNL1       -0.0513
     18 C          -3.4670    2.5607   -2.4372 C.3     1  UNL1        0.0205
     19 C          -4.3615    2.7761   -3.6597 C.3     1  UNL1        0.0853
     20 H          -5.1761    2.0519   -3.6459 H       1  UNL1        0.0645
     21 C          -4.9294    4.1716   -3.6270 C.ar    1  UNL1       -0.0190
     22 C          -4.1969    5.2279   -4.1355 C.ar    1  UNL1       -0.0561
     23 C          -4.7198    6.5073   -4.1099 C.ar    1  UNL1       -0.0614
     24 C          -5.9710    6.7319   -3.5668 C.ar    1  UNL1       -0.0617
     25 C          -6.7011    5.6764   -3.0532 C.ar    1  UNL1       -0.0614
     26 C          -6.1804    4.3962   -3.0835 C.ar    1  UNL1       -0.0561
     27 O          -3.5906    2.6033   -4.8504 O.3     1  UNL1       -0.3870
     28 H          -3.4433    2.0432    0.1701 H       1  UNL1        0.0778
     29 H          -4.1057    0.4220   -0.1479 H       1  UNL1        0.0778
     30 H          -2.6950    0.6131    0.9206 H       1  UNL1        0.0778
     31 H          -1.7889   -0.2408   -3.5397 H       1  UNL1        0.0320
     32 H          -2.6278    1.0010   -4.5009 H       1  UNL1        0.0320
     33 H          -0.1812    1.4678   -4.3023 H       1  UNL1        0.0269
     34 H          -1.1659    2.7487   -3.5527 H       1  UNL1        0.0269
     35 H           0.7007    2.1327   -2.0615 H       1  UNL1        0.0320
     36 H           0.1830    0.4293   -2.0946 H       1  UNL1        0.0320
     37 H          -1.1050    1.5612    1.0780 H       1  UNL1        0.0401
     38 H          -0.0139    0.4774    0.3366 H       1  UNL1        0.0401
     39 H           0.6011    0.6241    2.4840 H       1  UNL1        0.0624
     40 H           2.1138    0.4496    4.4148 H       1  UNL1        0.0618
     41 H           3.9050    2.1049    4.7346 H       1  UNL1        0.0618
     42 H           4.2034    3.9383    3.1221 H       1  UNL1        0.0618
     43 H           2.7109    4.1278    1.1772 H       1  UNL1        0.0624
     44 H          -4.0239    2.8034   -1.5322 H       1  UNL1        0.0348
     45 H          -2.5917    3.2063   -2.5093 H       1  UNL1        0.0348
     46 H          -3.2176    5.0531   -4.5561 H       1  UNL1        0.0621
     47 H          -4.1492    7.3320   -4.5108 H       1  UNL1        0.0618
     48 H          -6.3780    7.7320   -3.5434 H       1  UNL1        0.0618
     49 H          -7.6785    5.8519   -2.6285 H       1  UNL1        0.0618
     50 H          -6.7508    3.5716   -2.6822 H       1  UNL1        0.0621
     51 H          -2.8467    3.2159   -4.9297 H       1  UNL1        0.2102
     52 N          -2.2892    0.8245   -1.1283 N.4     1  UNL1        0.2378
     53 H          -1.9469   -0.1434   -1.1466 H       1  UNL1        0.2036
@<TRIPOS>UNITY_ATOM_ATTR
52 1
charge 1
@<TRIPOS>BOND
     1     1    28    1
     2     1    29    1
     3     1    30    1
     4     1    52    1
     5     2     3    1
     6     2     4    1
     7     2    18    1
     8     2    52    1
     9     4     5    1
    10     4    31    1
    11     4    32    1
    12     5     6    1
    13     5    33    1
    14     5    34    1
    15     6     7    1
    16     6    35    1
    17     6    36    1
    18     7     8    1
    19     7     9    1
    20     7    52    1
    21     9    10    1
    22     9    37    1
    23     9    38    1
    24    10    11    2
    25    10    12    1
    26    12    17   ar
    27    12    13   ar
    28    13    14   ar
    29    13    39    1
    30    14    15   ar
    31    14    40    1
    32    15    16   ar
    33    15    41    1
    34    16    17   ar
    35    16    42    1
    36    17    43    1
    37    18    19    1
    38    18    44    1
    39    18    45    1
    40    19    20    1
    41    19    21    1
    42    19    27    1
    43    21    26   ar
    44    21    22   ar
    45    22    23   ar
    46    22    46    1
    47    23    24   ar
    48    23    47    1
    49    24    25   ar
    50    24    48    1
    51    25    26   ar
    52    25    49    1
    53    26    50    1
    54    27    51    1
    55    52    53    1
