@<TRIPOS>MOLECULE
ZINC03830748
 55 56 0 0 0
SMALL
GASTEIGER

@<TRIPOS>ATOM
      1 C          -5.9379    1.4973   -2.5700 C.3     0  UNK0       -0.0306
      2 C          -4.9905    1.2294   -1.3988 C.3     0  UNK0        0.0899
      3 O          -3.6314    1.5567   -1.7911 O.3     0  UNK0       -0.4610
      4 C          -2.6713    1.3767   -0.8705 C.2     0  UNK0        0.3560
      5 O          -2.9571    0.9594    0.2268 O.2     0  UNK0       -0.2444
      6 C          -1.2369    1.6950   -1.2055 C.3     0  UNK0        0.0770
      7 H          -0.9148    1.0797   -2.0456 H       0  UNK0        0.0969
      8 C          -1.1168    3.1734   -1.5805 C.3     0  UNK0        0.0048
      9 C           0.3124    3.4685   -2.0403 C.3     0  UNK0       -0.0220
     10 C           0.4307    4.9247   -2.4096 C.ar    0  UNK0       -0.0471
     11 C           0.1818    5.3310   -3.7073 C.ar    0  UNK0       -0.0586
     12 C           0.2861    6.6674   -4.0451 C.ar    0  UNK0       -0.0615
     13 C           0.6481    7.5962   -3.0874 C.ar    0  UNK0       -0.0617
     14 C           0.9021    7.1891   -1.7910 C.ar    0  UNK0       -0.0615
     15 C           0.7937    5.8534   -1.4522 C.ar    0  UNK0       -0.0586
     16 CA          0.0014   -0.0009   -0.0000 C.3     1  PRO1        0.0530
     17 HA         -0.8173   -0.6137   -0.3773 H       1  PRO1        0.0947
     18 CB          1.2410   -0.2135   -0.8713 C.3     1  PRO1       -0.0129
     19 C           0.3119   -0.3968    1.4205 C.2     1  PRO1        0.2640
     20 O           0.7040    0.4360    2.2102 O.2     1  PRO1       -0.2694
     21 N           0.1539   -1.6764    1.8133 N.am    1  PRO1       -0.2887
     22 CD         -0.2115   -2.8050    0.9381 C.3     1  PRO1        0.0156
     23 CG          0.3296   -4.0616    1.6646 C.3     1  PRO1       -0.0351
     24 CB          0.0661   -3.7000    3.1503 C.3     1  PRO1       -0.0276
     25 CA          0.3237   -2.1789    3.1845 C.3     1  PRO1        0.0656
     26 HA          1.3386   -1.9805    3.5291 H       1  PRO1        0.0562
     27 C          -0.6709   -1.5139    4.1009 C.2     1  PRO1        0.0622
     28 O          -1.4478   -0.7000    3.6606 O.co2   1  PRO1       -0.5479
     29 H          -5.8835    2.5499   -2.8479 H       0  UNK0        0.0262
     30 H          -5.6470    0.8813   -3.4209 H       0  UNK0        0.0262
     31 H          -6.9582    1.2516   -2.2755 H       0  UNK0        0.0262
     32 H          -5.0450    0.1768   -1.1209 H       0  UNK0        0.0694
     33 H          -5.2815    1.8454   -0.5480 H       0  UNK0        0.0694
     34 H          -1.8125    3.4011   -2.3881 H       0  UNK0        0.0329
     35 H          -1.3536    3.7888   -0.7126 H       0  UNK0        0.0329
     36 H           1.0081    3.2408   -1.2327 H       0  UNK0        0.0315
     37 H           0.5492    2.8531   -2.9082 H       0  UNK0        0.0315
     38 H          -0.0974    4.6049   -4.4564 H       0  UNK0        0.0620
     39 H           0.0873    6.9855   -5.0579 H       0  UNK0        0.0618
     40 H           0.7322    8.6399   -3.3520 H       0  UNK0        0.0618
     41 H           1.1850    7.9148   -1.0428 H       0  UNK0        0.0618
     42 H           0.9921    5.5353   -0.4393 H       0  UNK0        0.0620
     43 HB1         1.0174    0.0758   -1.8981 H       1  PRO1        0.0289
     44 HB2         2.0606    0.3968   -0.4921 H       1  PRO1        0.0289
     45 HB3         1.5281   -1.2647   -0.8443 H       1  PRO1        0.0289
     46 HD1        -1.2944   -2.8661    0.8300 H       1  PRO1        0.0465
     47 HD2         0.2610   -2.6963   -0.0382 H       1  PRO1        0.0465
     48 HG1        -0.2288   -4.9515    1.3742 H       1  PRO1        0.0281
     49 HG2         1.3954   -4.1926    1.4775 H       1  PRO1        0.0281
     50 HB1        -0.9639   -3.9268    3.4256 H       1  PRO1        0.0287
     51 HB2         0.7630   -4.2244    3.8042 H       1  PRO1        0.0287
     52 N          -0.3850    1.4223   -0.0325 N.4     1  PRO1        0.2457
     53 H1         -0.9036    1.6521    0.8234 H       1  PRO1        0.2030
     54 H2          0.4608    2.0018   -0.0861 H       1  PRO1        0.2030
     55 OXT        -0.6937   -1.8258    5.4062 O.co2   1  PRO1       -0.5479
@<TRIPOS>UNITY_ATOM_ATTR
52 1
charge 1
55 1
charge -1
@<TRIPOS>BOND
     1     1     2    1
     2     1    29    1
     3     1    30    1
     4     1    31    1
     5     2     3    1
     6     2    32    1
     7     2    33    1
     8     3     4    1
     9     4     5    2
    10     4     6    1
    11     6     7    1
    12     6     8    1
    13     6    52    1
    14     8     9    1
    15     8    34    1
    16     8    35    1
    17     9    10    1
    18     9    36    1
    19     9    37    1
    20    10    15   ar
    21    10    11   ar
    22    11    12   ar
    23    11    38    1
    24    12    13   ar
    25    12    39    1
    26    13    14   ar
    27    13    40    1
    28    14    15   ar
    29    14    41    1
    30    15    42    1
    31    16    17    1
    32    16    18    1
    33    16    19    1
    34    16    52    1
    35    18    43    1
    36    18    44    1
    37    18    45    1
    38    19    20    2
    39    19    21   am
    40    21    25    1
    41    21    22    1
    42    22    23    1
    43    22    46    1
    44    22    47    1
    45    23    24    1
    46    23    48    1
    47    23    49    1
    48    24    25    1
    49    24    50    1
    50    24    51    1
    51    25    26    1
    52    25    27    1
    53    27    28   ar
    54    27    55   ar
    55    52    53    1
    56    52    54    1
