@<TRIPOS>MOLECULE
ZINC03830489
 57 59 0 0 0
SMALL
GASTEIGER

@<TRIPOS>ATOM
      1 C          -1.0825   -4.6555   -0.4505 C.3     1  UNL1        0.0100
      2 C           0.1106   -4.3260   -1.3499 C.3     1  UNL1        0.2467
      3 H          -0.1056   -4.6420   -2.3704 H       1  UNL1        0.1204
      4 O           1.2885   -5.0239   -0.8663 O.3     1  UNL1       -0.4251
      5 C           2.3933   -4.9529   -1.6253 C.2     1  UNL1        0.3068
      6 O           2.4039   -4.2575   -2.6133 O.2     1  UNL1       -0.2511
      7 C           3.6205   -5.7407   -1.2452 C.3     1  UNL1        0.0333
      8 O           0.3528   -2.8946   -1.3274 O.3     1  UNL1       -0.4206
      9 C           0.5860   -2.3322   -0.1250 C.2     1  UNL1        0.3567
     10 O           0.6925   -3.0320    0.8626 O.2     1  UNL1       -0.2434
     11 C           0.7117   -0.8682   -0.0080 C.2     1  UNL1        0.1255
     12 C          -0.3572   -0.1365    0.2713 C.2     1  UNL1        0.0057
     13 C          -0.4533    1.3506    0.3829 C.3     1  UNL1        0.0220
     14 S           1.1703    2.1165    0.6803 S.3     1  UNL1       -0.1310
     15 C           2.2315    1.1775   -0.4698 C.3     1  UNL1        0.1042
     16 H           2.1290    1.4703   -1.5148 H       1  UNL1        0.0644
     17 N           1.9599   -0.2610   -0.1923 N.am    1  UNL1       -0.2489
     18 C           3.2657   -0.4865   -0.1176 C.2     1  UNL1        0.2440
     19 O           3.9170   -1.5096   -0.1310 O.2     1  UNL1       -0.2731
     20 C           3.6632    0.9672   -0.0105 C.3     1  UNL1        0.1286
     21 H           4.4185    1.2822   -0.7305 H       1  UNL1        0.0622
     22 N           3.9344    1.4228    1.3552 N.am    1  UNL1       -0.2963
     23 C           5.1867    1.7680    1.7144 C.2     1  UNL1        0.2699
     24 O           6.0909    1.7013    0.9054 O.2     1  UNL1       -0.2683
     25 C           5.4610    2.2290    3.0962 C.2     1  UNL1        0.2059
     26 N           4.4902    2.3007    3.9648 N.2     1  UNL1       -0.0763
     27 O           4.7523    2.7410    5.2848 O.2     1  UNL1       -0.3964
     28 C           3.5986    2.7702    6.1276 C.3     1  UNL1        0.1072
     29 C           6.8301    2.6063    3.4888 C.ar    1  UNL1        0.1612
     30 C           7.2175    3.0443    4.7198 C.ar    1  UNL1       -0.0141
     31 C           8.6016    3.2858    4.6465 C.ar    1  UNL1       -0.0232
     32 C           8.9896    2.9875    3.3892 C.ar    1  UNL1        0.0926
     33 O           7.9185    2.5730    2.6949 O.2     1  UNL1       -0.4611
     34 C          -1.6357   -0.8993    0.5051 C.3     1  UNL1        0.1182
     35 O          -2.6669   -0.4006   -0.3872 O.3     1  UNL1       -0.4460
     36 C          -3.9046   -0.9083   -0.2352 C.2     1  UNL1        0.3980
     37 O          -4.1387   -1.6756    0.6775 O.2     1  UNL1       -0.2267
     38 N          -4.8839   -0.5656   -1.0954 N.am    1  UNL1       -0.2950
     39 H          -0.9001   -4.2676    0.5517 H       1  UNL1        0.0301
     40 H          -1.9831   -4.1973   -0.8592 H       1  UNL1        0.0301
     41 H          -1.2143   -5.7365   -0.4032 H       1  UNL1        0.0301
     42 H           3.4228   -6.3035   -0.3329 H       1  UNL1        0.0342
     43 H           3.8731   -6.4307   -2.0503 H       1  UNL1        0.0342
     44 H           4.4532   -5.0576   -1.0775 H       1  UNL1        0.0342
     45 H          -0.8695    1.7495   -0.5422 H       1  UNL1        0.0424
     46 H          -1.1203    1.6020    1.2075 H       1  UNL1        0.0424
     47 H           3.2125    1.4761    2.0010 H       1  UNL1        0.1499
     48 H           3.8829    3.1181    7.1207 H       1  UNL1        0.0687
     49 H           2.8564    3.4468    5.7042 H       1  UNL1        0.0687
     50 H           3.1767    1.7678    6.2007 H       1  UNL1        0.0687
     51 H           6.5846    3.1798    5.5843 H       1  UNL1        0.0656
     52 H           9.2343    3.6423    5.4459 H       1  UNL1        0.0649
     53 H           9.9963    3.0655    3.0060 H       1  UNL1        0.1029
     54 H          -1.4677   -1.9585    0.3103 H       1  UNL1        0.0747
     55 H          -1.9543   -0.7661    1.5390 H       1  UNL1        0.0747
     56 H          -4.7170    0.1016   -1.7795 H       1  UNL1        0.1482
     57 H          -5.7556   -0.9860   -1.0305 H       1  UNL1        0.1482
@<TRIPOS>BOND
     1     1     2    1
     2     1    39    1
     3     1    40    1
     4     1    41    1
     5     2     3    1
     6     2     4    1
     7     2     8    1
     8     4     5    1
     9     5     6    2
    10     5     7    1
    11     7    42    1
    12     7    43    1
    13     7    44    1
    14     8     9    1
    15     9    10    2
    16     9    11    1
    17    11    17    1
    18    11    12    2
    19    12    13    1
    20    12    34    1
    21    13    14    1
    22    13    45    1
    23    13    46    1
    24    14    15    1
    25    15    16    1
    26    15    20    1
    27    15    17    1
    28    17    18   am
    29    18    19    2
    30    18    20    1
    31    20    21    1
    32    20    22    1
    33    22    23   am
    34    22    47    1
    35    23    24    2
    36    23    25    1
    37    25    26    2
    38    25    29    1
    39    26    27    1
    40    27    28    1
    41    28    48    1
    42    28    49    1
    43    28    50    1
    44    29    33   ar
    45    29    30   ar
    46    30    31   ar
    47    30    51    1
    48    31    32   ar
    49    31    52    1
    50    32    33   ar
    51    32    53    1
    52    34    35    1
    53    34    54    1
    54    34    55    1
    55    35    36    1
    56    36    37    2
    57    36    38   am
    58    38    56    1
    59    38    57    1
