@<TRIPOS>MOLECULE
ZINC00968338
 40 43 0 0 0
SMALL
GASTEIGER

@<TRIPOS>ATOM
      1 C          -6.7609    0.5526   -0.2136 C.3     1  UNL1       -0.0428
      2 C          -4.5569   -0.1909    0.4617 C.3     1  UNL1       -0.0278
      3 C          -3.0834   -0.1603    0.0374 C.3     1  UNL1        0.0134
      4 C          -2.6255    1.2829    0.0366 C.2     1  UNL1       -0.0298
      5 C          -3.4719    2.3079    0.0494 C.2     1  UNL1       -0.0096
      6 C          -4.9736    2.1666    0.0633 C.3     1  UNL1       -0.0088
      7 C          -2.6759    3.5853    0.0461 C.3     1  UNL1        0.0363
      8 H          -2.9053    4.1722   -0.8433 H       1  UNL1        0.0445
      9 C          -1.2280    3.1557    0.0301 C.ar    1  UNL1       -0.0283
     10 C          -1.2316    1.7585    0.0174 C.ar    1  UNL1       -0.0174
     11 C          -0.0126    1.0758    0.0080 C.ar    1  UNL1       -0.0540
     12 C           1.1721    1.7822    0.0004 C.ar    1  UNL1       -0.0612
     13 C           1.1618    3.1654    0.0076 C.ar    1  UNL1       -0.0614
     14 C          -0.0417    3.8507    0.0224 C.ar    1  UNL1       -0.0571
     15 C          -2.9690    4.3859    1.2887 C.ar    1  UNL1       -0.0357
     16 C          -2.7644    3.8261    2.5359 C.ar    1  UNL1       -0.0577
     17 C          -3.0294    4.5619    3.6758 C.ar    1  UNL1       -0.0615
     18 C          -3.5073    5.8545    3.5684 C.ar    1  UNL1       -0.0617
     19 C          -3.7165    6.4127    2.3212 C.ar    1  UNL1       -0.0615
     20 C          -3.4477    5.6783    1.1814 C.ar    1  UNL1       -0.0577
     21 H          -7.0492    0.5686    0.8375 H       1  UNL1        0.0778
     22 H          -7.3007    1.3328   -0.7503 H       1  UNL1        0.0778
     23 H          -7.0053   -0.4191   -0.6426 H       1  UNL1        0.0778
     24 H          -4.9634   -1.1878    0.2913 H       1  UNL1        0.0818
     25 H          -4.6353    0.0574    1.5202 H       1  UNL1        0.0818
     26 H          -2.9795   -0.5802   -0.9631 H       1  UNL1        0.0365
     27 H          -2.4842   -0.7364    0.7425 H       1  UNL1        0.0365
     28 H          -5.3512    2.3666    1.0661 H       1  UNL1        0.0864
     29 H          -5.4143    2.8690   -0.6442 H       1  UNL1        0.0864
     30 H           0.0021   -0.0041    0.0020 H       1  UNL1        0.0624
     31 H           2.1131    1.2524   -0.0107 H       1  UNL1        0.0618
     32 H           2.0934    3.7117    0.0019 H       1  UNL1        0.0618
     33 H          -0.0484    4.9307    0.0283 H       1  UNL1        0.0621
     34 H          -2.3945    2.8148    2.6198 H       1  UNL1        0.0621
     35 H          -2.8664    4.1256    4.6502 H       1  UNL1        0.0618
     36 H          -3.7176    6.4282    4.4589 H       1  UNL1        0.0618
     37 H          -4.0902    7.4225    2.2373 H       1  UNL1        0.0618
     38 H          -3.6114    6.1143    0.2069 H       1  UNL1        0.0621
     39 N          -5.3082    0.7854   -0.3571 N.4     1  UNL1        0.2364
     40 H          -5.0468    0.6646   -1.3426 H       1  UNL1        0.2034
@<TRIPOS>UNITY_ATOM_ATTR
39 1
charge 1
@<TRIPOS>BOND
     1     1    21    1
     2     1    22    1
     3     1    23    1
     4     1    39    1
     5     2     3    1
     6     2    24    1
     7     2    25    1
     8     2    39    1
     9     3     4    1
    10     3    26    1
    11     3    27    1
    12     4    10    1
    13     4     5    2
    14     5     6    1
    15     5     7    1
    16     6    28    1
    17     6    29    1
    18     6    39    1
    19     7     8    1
    20     7     9    1
    21     7    15    1
    22     9    14   ar
    23     9    10   ar
    24    10    11   ar
    25    11    12   ar
    26    11    30    1
    27    12    13   ar
    28    12    31    1
    29    13    14   ar
    30    13    32    1
    31    14    33    1
    32    15    20   ar
    33    15    16   ar
    34    16    17   ar
    35    16    34    1
    36    17    18   ar
    37    17    35    1
    38    18    19   ar
    39    18    36    1
    40    19    20   ar
    41    19    37    1
    42    20    38    1
    43    39    40    1
