@<TRIPOS>MOLECULE
ZINC08101157
 110 113 0 0 0
SMALL
GASTEIGER

@<TRIPOS>ATOM
      1 C           0.9603    2.7252   10.9871 C.3     1  UNL1       -0.0384
      2 C           1.7940    3.2389    9.8115 C.3     1  UNL1        0.0642
      3 H           2.7872    2.7913    9.8472 H       1  UNL1        0.0596
      4 C           1.9167    4.7623    9.8998 C.3     1  UNL1        0.0190
      5 C           2.7010    5.2746    8.6879 C.3     1  UNL1        0.0124
      6 H           2.7441    6.3634    8.7151 H       1  UNL1        0.0879
      7 C           1.9934    4.8217    7.4070 C.3     1  UNL1        0.1482
      8 H           2.5746    5.1347    6.5397 H       1  UNL1        0.0702
      9 C           1.8677    3.2960    7.4150 C.3     1  UNL1        0.1908
     10 H           2.8619    2.8491    7.4192 H       1  UNL1        0.0939
     11 O           1.1553    2.8842    8.5834 O.3     1  UNL1       -0.3454
     12 O           1.1587    2.8701    6.2497 O.3     1  UNL1       -0.3447
     13 C           1.0826    1.4539    6.1024 C.3     1  UNL1        0.0694
     14 H           1.1188    1.0046    7.1077 H       1  UNL1        0.0603
     15 C           2.2709    0.9236    5.3008 C.3     1  UNL1       -0.0140
     16 H           2.0763    1.0291    4.2354 H       1  UNL1        0.0324
     17 C           3.5299    1.6967    5.6791 C.3     1  UNL1       -0.0096
     18 C           4.6972    1.3648    4.7451 C.3     1  UNL1        0.1508
     19 C           5.5401    0.1246    4.9923 C.3     1  UNL1        0.0850
     20 O           6.0002    1.4263    5.3629 O.3     1  UNL1       -0.3603
     21 C           4.6183    1.9453    3.3600 C.2     1  UNL1        0.1723
     22 O           5.1243    3.0243    3.1465 O.2     1  UNL1       -0.2939
     23 C           3.9285    1.2204    2.2316 C.3     1  UNL1        0.0440
     24 H           3.1454    0.7128    2.5909 H       1  UNL1        0.0401
     25 C           3.4642    2.2582    1.1992 C.3     1  UNL1        0.0705
     26 H           4.3601    2.6927    0.7358 H       1  UNL1        0.0604
     27 C           2.6173    1.6157    0.1130 C.3     1  UNL1        0.0197
     28 H           2.6931    0.5250    0.1710 H       1  UNL1        0.0359
     29 C           1.1409    1.9952    0.2286 C.3     1  UNL1        0.1052
     30 H           0.5669    1.3062   -0.4119 H       1  UNL1        0.0734
     31 O           0.6752    1.8468    1.5864 O.3     1  UNL1       -0.4610
     32 C          -0.6266    1.6474    1.7992 C.2     1  UNL1        0.3127
     33 O          -1.4179    1.8454    0.8898 O.2     1  UNL1       -0.2504
     34 C          -1.1724    1.1844    3.1233 C.3     1  UNL1        0.0801
     35 H          -0.9476    0.1237    3.2497 H       1  UNL1        0.0436
     36 C          -0.5953    1.9821    4.2872 C.3     1  UNL1        0.0792
     37 H          -1.3681    2.6820    4.6411 H       1  UNL1        0.0608
     38 C          -0.2349    1.0524    5.4471 C.3     1  UNL1        0.0100
     39 H          -0.1736    0.0251    5.0832 H       1  UNL1        0.0348
     40 C          -1.3477    1.1171    6.5047 C.3     1  UNL1       -0.0577
     41 O           0.5371    2.7306    3.8580 O.3     1  UNL1       -0.3469
     42 C           0.2441    4.0893    3.5263 C.3     1  UNL1        0.1624
     43 H          -0.7387    4.1454    3.0582 H       1  UNL1        0.0910
     44 C           1.3031    4.6176    2.5552 C.3     1  UNL1        0.0272
     45 C           1.0165    6.0914    2.2518 C.3     1  UNL1        0.0911
     46 H           0.0504    6.1802    1.7549 H       1  UNL1        0.0624
     47 C           0.9904    6.8764    3.5668 C.3     1  UNL1        0.1073
     48 H           0.7324    7.9161    3.3654 H       1  UNL1        0.0645
     49 C          -0.0566    6.2609    4.4989 C.3     1  UNL1        0.0871
     50 H          -1.0433    6.3457    4.0436 H       1  UNL1        0.0621
     51 O           0.2518    4.8823    4.7151 O.3     1  UNL1       -0.3456
     52 C          -0.0468    7.0019    5.8374 C.3     1  UNL1       -0.0361
     53 O           2.2772    6.8149    4.1853 O.3     1  UNL1       -0.3867
     54 O           2.0406    6.6125    1.4022 O.3     1  UNL1       -0.3770
     55 C           1.6243    6.8222    0.0514 C.3     1  UNL1        0.0369
     56 C          -2.6992    1.3550    3.1040 C.3     1  UNL1       -0.0499
     57 C           0.9136    3.4143   -0.2978 C.3     1  UNL1       -0.0274
     58 C           3.1382    2.0584   -1.2611 C.3     1  UNL1       -0.0567
     59 O           2.7634    3.3001    1.8738 O.3     1  UNL1       -0.3907
     60 C           4.9232    0.2596    1.5776 C.3     1  UNL1       -0.0532
     61 C           2.4647   -0.5628    5.6318 C.3     1  UNL1       -0.0599
     62 O           0.6915    5.4079    7.3479 O.3     1  UNL1       -0.3813
     63 C           4.8427    5.1912    7.5614 C.3     1  UNL1       -0.0430
     64 C           4.7399    5.0674    9.9774 C.3     1  UNL1       -0.0430
     65 H           0.8721    1.6406   10.9235 H       1  UNL1        0.0255
     66 H           1.4476    2.9958   11.9238 H       1  UNL1        0.0255
     67 H          -0.0328    3.1732   10.9515 H       1  UNL1        0.0255
     68 H           0.9221    5.2082    9.9050 H       1  UNL1        0.0346
     69 H           2.4431    5.0329   10.8152 H       1  UNL1        0.0346
     70 H           3.8134    1.4571    6.7068 H       1  UNL1        0.0301
     71 H           3.3341    2.7710    5.6165 H       1  UNL1        0.0301
     72 H           5.2614   -0.5554    5.7999 H       1  UNL1        0.0593
     73 H           6.0454   -0.3510    4.1455 H       1  UNL1        0.0593
     74 H          -1.4208    2.1327    6.8935 H       1  UNL1        0.0234
     75 H          -2.2970    0.8324    6.0510 H       1  UNL1        0.0234
     76 H          -1.1145    0.4319    7.3197 H       1  UNL1        0.0234
     77 H           2.2906    4.5241    3.0071 H       1  UNL1        0.0340
     78 H           1.2688    4.0419    1.6303 H       1  UNL1        0.0340
     79 H          -0.2810    8.0536    5.6721 H       1  UNL1        0.0255
     80 H          -0.7923    6.5635    6.5008 H       1  UNL1        0.0255
     81 H           0.9398    6.9166    6.2927 H       1  UNL1        0.0255
     82 H           2.3333    7.2918    5.0246 H       1  UNL1        0.2100
     83 H           1.2474    5.8868   -0.3621 H       1  UNL1        0.0524
     84 H           0.8357    7.5742    0.0268 H       1  UNL1        0.0524
     85 H           2.4724    7.1657   -0.5410 H       1  UNL1        0.0524
     86 H          -2.9454    2.4099    2.9829 H       1  UNL1        0.0238
     87 H          -3.1178    0.7865    2.2734 H       1  UNL1        0.0238
     88 H          -3.1175    0.9895    4.0418 H       1  UNL1        0.0238
     89 H           1.0053    3.4180   -1.3839 H       1  UNL1        0.0265
     90 H          -0.0843    3.7507   -0.0163 H       1  UNL1        0.0265
     91 H           1.6577    4.0849    0.1320 H       1  UNL1        0.0265
     92 H           4.1771    1.7480   -1.3731 H       1  UNL1        0.0234
     93 H           2.5351    1.5982   -2.0438 H       1  UNL1        0.0234
     94 H           3.0724    3.1434   -1.3423 H       1  UNL1        0.0234
     95 H           3.3378    3.9213    2.3422 H       1  UNL1        0.2098
     96 H           5.7842    0.8202    1.2136 H       1  UNL1        0.0237
     97 H           5.2526   -0.4768    2.3105 H       1  UNL1        0.0237
     98 H           4.4415   -0.2492    0.7426 H       1  UNL1        0.0237
     99 H           2.6535   -0.6756    6.6994 H       1  UNL1        0.0233
    100 H           1.5650   -1.1155    5.3615 H       1  UNL1        0.0233
    101 H           3.3132   -0.9526    5.0696 H       1  UNL1        0.0233
    102 H           0.1838    5.1597    6.5632 H       1  UNL1        0.2103
    103 H           4.9021    6.2795    7.5758 H       1  UNL1        0.0778
    104 H           5.8477    4.7718    7.6084 H       1  UNL1        0.0778
    105 H           4.3559    4.8661    6.6420 H       1  UNL1        0.0778
    106 H           4.2501    4.5511   10.8030 H       1  UNL1        0.0778
    107 H           5.7840    4.7590    9.9241 H       1  UNL1        0.0778
    108 H           4.6869    6.1440   10.1395 H       1  UNL1        0.0778
    109 N           4.0623    4.6994    8.7164 N.4     1  UNL1        0.2351
    110 H           3.9933    3.6765    8.6610 H       1  UNL1        0.2031
@<TRIPOS>UNITY_ATOM_ATTR
109 1
charge 1
@<TRIPOS>BOND
     1     1     2    1
     2     1    65    1
     3     1    66    1
     4     1    67    1
     5     2     3    1
     6     2    11    1
     7     2     4    1
     8     4     5    1
     9     4    68    1
    10     4    69    1
    11     5     6    1
    12     5     7    1
    13     5   109    1
    14     7     8    1
    15     7     9    1
    16     7    62    1
    17     9    10    1
    18     9    11    1
    19     9    12    1
    20    12    13    1
    21    13    14    1
    22    13    38    1
    23    13    15    1
    24    15    16    1
    25    15    17    1
    26    15    61    1
    27    17    18    1
    28    17    70    1
    29    17    71    1
    30    18    20    1
    31    18    19    1
    32    18    21    1
    33    19    20    1
    34    19    72    1
    35    19    73    1
    36    21    22    2
    37    21    23    1
    38    23    24    1
    39    23    25    1
    40    23    60    1
    41    25    26    1
    42    25    27    1
    43    25    59    1
    44    27    28    1
    45    27    29    1
    46    27    58    1
    47    29    30    1
    48    29    31    1
    49    29    57    1
    50    31    32    1
    51    32    33    2
    52    32    34    1
    53    34    35    1
    54    34    36    1
    55    34    56    1
    56    36    37    1
    57    36    38    1
    58    36    41    1
    59    38    39    1
    60    38    40    1
    61    40    74    1
    62    40    75    1
    63    40    76    1
    64    41    42    1
    65    42    43    1
    66    42    51    1
    67    42    44    1
    68    44    45    1
    69    44    77    1
    70    44    78    1
    71    45    46    1
    72    45    47    1
    73    45    54    1
    74    47    48    1
    75    47    49    1
    76    47    53    1
    77    49    50    1
    78    49    51    1
    79    49    52    1
    80    52    79    1
    81    52    80    1
    82    52    81    1
    83    53    82    1
    84    54    55    1
    85    55    83    1
    86    55    84    1
    87    55    85    1
    88    56    86    1
    89    56    87    1
    90    56    88    1
    91    57    89    1
    92    57    90    1
    93    57    91    1
    94    58    92    1
    95    58    93    1
    96    58    94    1
    97    59    95    1
    98    60    96    1
    99    60    97    1
   100    60    98    1
   101    61    99    1
   102    61   100    1
   103    61   101    1
   104    62   102    1
   105    63   103    1
   106    63   104    1
   107    63   105    1
   108    63   109    1
   109    64   106    1
   110    64   107    1
   111    64   108    1
   112    64   109    1
   113   109   110    1
