@<TRIPOS>MOLECULE
ZINC08551668
 51 54 0 0 0
SMALL
GASTEIGER

@<TRIPOS>ATOM
      1 C           2.5181    4.0214    0.3986 C.3     1  UNL1       -0.0569
      2 C           1.2855    3.3472   -0.2074 C.3     1  UNL1       -0.0030
      3 C           0.0625    3.8419    0.5311 C.3     1  UNL1       -0.0447
      4 C          -1.2055    3.2958   -0.0993 C.3     1  UNL1       -0.0486
      5 C          -1.2806    3.7928   -1.5495 C.3     1  UNL1       -0.0285
      6 H          -1.2535    4.8820   -1.5811 H       1  UNL1        0.0312
      7 C          -0.0964    3.2246   -2.3318 C.3     1  UNL1       -0.0306
      8 H          -0.1577    2.1365   -2.3504 H       1  UNL1        0.0310
      9 C           1.2372    3.6551   -1.7124 C.3     1  UNL1       -0.0298
     10 H           1.4661    4.6995   -1.9241 H       1  UNL1        0.0310
     11 C           2.3272    2.6890   -2.2654 C.3     1  UNL1       -0.0470
     12 C           2.1316    1.3994   -1.4382 C.3     1  UNL1       -0.0261
     13 C           1.4557    1.8250   -0.1186 C.3     1  UNL1        0.0609
     14 H           2.0889    1.5663    0.7300 H       1  UNL1        0.0599
     15 O           0.1803    1.1931    0.0081 O.3     1  UNL1       -0.3912
     16 C          -0.1406    3.7693   -3.7671 C.3     1  UNL1       -0.0311
     17 C          -1.4934    3.5342   -4.3665 C.2     1  UNL1       -0.0839
     18 C          -2.5620    3.3220   -3.6674 C.2     1  UNL1       -0.0648
     19 C          -2.5889    3.3066   -2.1639 C.3     1  UNL1       -0.0078
     20 C          -2.9039    1.8924   -1.6812 C.3     1  UNL1       -0.0413
     21 C          -3.7329    1.1522   -2.7298 C.3     1  UNL1       -0.0258
     22 C          -4.6832    2.1046   -3.4529 C.3     1  UNL1        0.0590
     23 H          -5.2259    2.7019   -2.7202 H       1  UNL1        0.0596
     24 C          -3.8769    3.0323   -4.3729 C.3     1  UNL1       -0.0051
     25 O          -5.6117    1.3493   -4.2335 O.3     1  UNL1       -0.3915
     26 C          -3.7093    4.2360   -1.6931 C.3     1  UNL1       -0.0556
     27 H           3.4099    3.6976   -0.1379 H       1  UNL1        0.0236
     28 H           2.4175    5.1036    0.3166 H       1  UNL1        0.0236
     29 H           2.6048    3.7432    1.4490 H       1  UNL1        0.0236
     30 H           0.1119    3.5116    1.5687 H       1  UNL1        0.0271
     31 H           0.0424    4.9313    0.5026 H       1  UNL1        0.0271
     32 H          -2.0687    3.6612    0.4570 H       1  UNL1        0.0268
     33 H          -1.1959    2.2059   -0.0870 H       1  UNL1        0.0268
     34 H           2.1627    2.4926   -3.3249 H       1  UNL1        0.0269
     35 H           3.3226    3.1025   -2.1040 H       1  UNL1        0.0269
     36 H           3.0971    0.9376   -1.2317 H       1  UNL1        0.0290
     37 H           1.4911    0.7022   -1.9784 H       1  UNL1        0.0290
     38 H           0.2233    0.2289    0.0686 H       1  UNL1        0.2098
     39 H           0.0679    4.8391   -3.7542 H       1  UNL1        0.0310
     40 H           0.6126    3.2616   -4.3696 H       1  UNL1        0.0310
     41 H          -1.5821    3.5426   -5.4428 H       1  UNL1        0.0572
     42 H          -1.9724    1.3529   -1.5102 H       1  UNL1        0.0274
     43 H          -3.4671    1.9456   -0.7495 H       1  UNL1        0.0274
     44 H          -3.0628    0.6948   -3.4577 H       1  UNL1        0.0290
     45 H          -4.3141    0.3710   -2.2398 H       1  UNL1        0.0290
     46 H          -4.4237    3.9608   -4.5367 H       1  UNL1        0.0335
     47 H          -3.6869    2.5380   -5.3256 H       1  UNL1        0.0335
     48 H          -6.2473    1.8907   -4.7213 H       1  UNL1        0.2098
     49 H          -4.6275    3.9996   -2.2308 H       1  UNL1        0.0238
     50 H          -3.8692    4.0995   -0.6235 H       1  UNL1        0.0238
     51 H          -3.4294    5.2710   -1.8894 H       1  UNL1        0.0238
@<TRIPOS>BOND
     1     1     2    1
     2     1    27    1
     3     1    28    1
     4     1    29    1
     5     2     9    1
     6     2    13    1
     7     2     3    1
     8     3     4    1
     9     3    30    1
    10     3    31    1
    11     4     5    1
    12     4    32    1
    13     4    33    1
    14     5     6    1
    15     5    19    1
    16     5     7    1
    17     7     8    1
    18     7     9    1
    19     7    16    1
    20     9    10    1
    21     9    11    1
    22    11    12    1
    23    11    34    1
    24    11    35    1
    25    12    13    1
    26    12    36    1
    27    12    37    1
    28    13    14    1
    29    13    15    1
    30    15    38    1
    31    16    17    1
    32    16    39    1
    33    16    40    1
    34    17    18    2
    35    17    41    1
    36    18    24    1
    37    18    19    1
    38    19    20    1
    39    19    26    1
    40    20    21    1
    41    20    42    1
    42    20    43    1
    43    21    22    1
    44    21    44    1
    45    21    45    1
    46    22    23    1
    47    22    24    1
    48    22    25    1
    49    24    46    1
    50    24    47    1
    51    25    48    1
    52    26    49    1
    53    26    50    1
    54    26    51    1
