@<TRIPOS>MOLECULE
ZINC11616740
 57 60 0 0 0
SMALL
GASTEIGER

@<TRIPOS>ATOM
      1 C          -1.8467    4.5332   -0.8913 C.3     1  UNL1       -0.0312
      2 C          -1.3418    4.4789    0.5520 C.3     1  UNL1        0.0972
      3 C           0.1030    4.0592    0.5556 C.ar    1  UNL1        0.0168
      4 C           0.4366    2.7289    0.7104 C.ar    1  UNL1        0.0478
      5 C           1.7656    2.3356    0.6959 C.ar    1  UNL1       -0.0395
      6 C           2.7689    3.2667    0.5115 C.ar    1  UNL1       -0.0181
      7 C           2.4511    4.6077    0.3543 C.ar    1  UNL1        0.1281
      8 C           1.1117    5.0100    0.3883 C.ar    1  UNL1        0.0707
      9 C           0.7495    6.4330    0.2332 C.2     1  UNL1        0.1967
     10 O           1.5661    7.2403   -0.1726 O.2     1  UNL1       -0.2867
     11 C          -0.5754    6.8443    0.5674 C.2     1  UNL1        0.0466
     12 C          -0.9145    8.1238    0.3304 C.2     1  UNL1        0.1409
     13 C          -2.3082    8.6029    0.6737 C.3     1  UNL1        0.1935
     14 C          -3.2718    7.4591    0.3074 C.3     1  UNL1        0.0531
     15 H          -3.1549    7.1976   -0.7443 H       1  UNL1        0.0397
     16 C          -2.9631    6.2554    1.1911 C.3     1  UNL1       -0.0311
     17 C          -1.5044    5.8569    1.1950 C.3     1  UNL1        0.0244
     18 H          -1.2036    5.7498    2.2371 H       1  UNL1        0.0382
     19 C          -4.7088    7.9108    0.5757 C.3     1  UNL1        0.0441
     20 H          -5.3958    7.1460    0.2134 H       1  UNL1        0.0939
     21 C          -5.0160    9.2082   -0.1086 C.2     1  UNL1        0.1579
     22 C          -4.0357   10.0941   -0.4819 C.2     1  UNL1        0.1248
     23 C          -2.6287    9.7769   -0.2304 C.2     1  UNL1        0.2108
     24 O          -1.7421   10.4363   -0.7328 O.2     1  UNL1       -0.2882
     25 C          -4.3990   11.3617   -1.1351 C.2     1  UNL1        0.2485
     26 O          -4.1642   11.5260   -2.3172 O.2     1  UNL1       -0.2702
     27 N          -4.9920   12.3407   -0.4234 N.am    1  UNL1       -0.3252
     28 O          -6.2960    9.5156   -0.3655 O.2     1  UNL1       -0.5050
     29 C          -5.7733    9.2178    2.3139 C.3     1  UNL1       -0.0427
     30 C          -5.4162    6.8441    2.6310 C.3     1  UNL1       -0.0427
     31 O          -2.4066    8.9679    2.0518 O.3     1  UNL1       -0.3731
     32 O          -0.0185    8.9742   -0.2091 O.2     1  UNL1       -0.5073
     33 O           3.4342    5.5245    0.1690 O.3     1  UNL1       -0.5060
     34 CL         -0.8130    1.5443    0.9310 Cl      1  UNL1       -0.0831
     35 O          -2.1116    3.5236    1.2846 O.3     1  UNL1       -0.3836
     36 H          -1.2684    5.2682   -1.4511 H       1  UNL1        0.0261
     37 H          -1.7325    3.5526   -1.3533 H       1  UNL1        0.0261
     38 H          -2.8990    4.8174   -0.8976 H       1  UNL1        0.0261
     39 H           2.0180    1.2935    0.8252 H       1  UNL1        0.0633
     40 H           3.8014    2.9506    0.4901 H       1  UNL1        0.0655
     41 H          -3.2626    6.4884    2.2129 H       1  UNL1        0.0278
     42 H          -3.5522    5.4075    0.8418 H       1  UNL1        0.0278
     43 H          -5.1162   12.2379    0.5331 H       1  UNL1        0.1453
     44 H          -5.2944   13.1482   -0.8678 H       1  UNL1        0.1453
     45 H          -6.3403   10.4046   -0.8213 H       1  UNL1        0.2919
     46 H          -6.7471    9.0543    1.8521 H       1  UNL1        0.0778
     47 H          -5.8948    9.3174    3.3925 H       1  UNL1        0.0778
     48 H          -5.3292   10.1287    1.9126 H       1  UNL1        0.0778
     49 H          -4.7817    6.0038    2.3491 H       1  UNL1        0.0778
     50 H          -5.4207    6.9479    3.7160 H       1  UNL1        0.0778
     51 H          -6.4323    6.6663    2.2788 H       1  UNL1        0.0778
     52 H          -1.8058    9.6787    2.3143 H       1  UNL1        0.2113
     53 H          -0.4370    9.8762   -0.3151 H       1  UNL1        0.2918
     54 H           3.6625    5.6744   -0.7586 H       1  UNL1        0.2922
     55 H          -1.9238    3.5113    2.2331 H       1  UNL1        0.2106
     56 N          -4.8701    8.0815    2.0350 N.4     1  UNL1        0.2388
     57 H          -3.9519    8.2753    2.4516 H       1  UNL1        0.2035
@<TRIPOS>UNITY_ATOM_ATTR
56 1
charge 1
@<TRIPOS>BOND
     1     1     2    1
     2     1    36    1
     3     1    37    1
     4     1    38    1
     5     2    17    1
     6     2     3    1
     7     2    35    1
     8     3     8   ar
     9     3     4   ar
    10     4     5   ar
    11     4    34    1
    12     5     6   ar
    13     5    39    1
    14     6     7   ar
    15     6    40    1
    16     7     8   ar
    17     7    33    1
    18     8     9    1
    19     9    10    2
    20     9    11    1
    21    11    17    1
    22    11    12    2
    23    12    13    1
    24    12    32    1
    25    13    23    1
    26    13    14    1
    27    13    31    1
    28    14    15    1
    29    14    16    1
    30    14    19    1
    31    16    17    1
    32    16    41    1
    33    16    42    1
    34    17    18    1
    35    19    20    1
    36    19    21    1
    37    19    56    1
    38    21    22    2
    39    21    28    1
    40    22    23    1
    41    22    25    1
    42    23    24    2
    43    25    26    2
    44    25    27   am
    45    27    43    1
    46    27    44    1
    47    28    45    1
    48    29    46    1
    49    29    47    1
    50    29    48    1
    51    29    56    1
    52    30    49    1
    53    30    50    1
    54    30    51    1
    55    30    56    1
    56    31    52    1
    57    32    53    1
    58    33    54    1
    59    35    55    1
    60    56    57    1
