@<TRIPOS>MOLECULE
ZINC00057537
 33 34 0 0 0
SMALL
GASTEIGER

@<TRIPOS>ATOM
      1 C           3.6063    0.7381   -0.0347 C.3     1  UNL1       -0.0376
      2 C           2.0998    0.7013   -0.0182 C.ar    1  UNL1       -0.0215
      3 C           1.2425    1.8043   -0.0023 C.ar    1  UNL1       -0.0370
      4 C          -0.0317    1.3412    0.0099 C.ar    1  UNL1        0.0247
      5 N          -0.0065   -0.0138    0.0023 N.ar    1  UNL1       -0.3438
      6 C           1.3061   -0.4294   -0.0152 C.ar    1  UNL1        0.0926
      7 C           1.7752   -1.8170   -0.0277 C.2     1  UNL1        0.2096
      8 O           2.0667   -2.3704    1.0166 O.2     1  UNL1       -0.2851
      9 C           1.8946   -2.5453   -1.3086 C.ar    1  UNL1        0.0238
     10 C           1.6626   -1.8830   -2.5159 C.ar    1  UNL1       -0.0495
     11 C           1.7806   -2.5664   -3.7076 C.ar    1  UNL1       -0.0427
     12 C           2.1174   -3.9101   -3.7083 C.ar    1  UNL1        0.0410
     13 C           2.3436   -4.5739   -2.5137 C.ar    1  UNL1       -0.0427
     14 C           2.2342   -3.8999   -1.3158 C.ar    1  UNL1       -0.0495
     15 CL          2.2570   -4.7656   -5.2124 Cl      1  UNL1       -0.0835
     16 C          -1.1803   -0.8904    0.0104 C.3     1  UNL1        0.0122
     17 C          -1.2739    2.1943    0.0233 C.3     1  UNL1        0.0273
     18 C          -1.6277    2.5886   -1.3875 C.2     1  UNL1        0.0475
     19 O          -0.9416    2.2151   -2.3093 O.co2   1  UNL1       -0.5494
     20 H           3.9560    0.8403   -1.0620 H       1  UNL1        0.0278
     21 H           3.9555    1.5864    0.5541 H       1  UNL1        0.0278
     22 H           3.9969   -0.1857    0.3919 H       1  UNL1        0.0278
     23 H           1.5417    2.8420   -0.0004 H       1  UNL1        0.0638
     24 H           1.3956   -0.8365   -2.5164 H       1  UNL1        0.0625
     25 H           1.6061   -2.0541   -4.6422 H       1  UNL1        0.0632
     26 H           2.6065   -5.6214   -2.5205 H       1  UNL1        0.0632
     27 H           2.4111   -4.4183   -0.3850 H       1  UNL1        0.0625
     28 H          -1.4830   -1.1018   -1.0152 H       1  UNL1        0.0456
     29 H          -0.9333   -1.8238    0.5161 H       1  UNL1        0.0456
     30 H          -1.9981   -0.3977    0.5363 H       1  UNL1        0.0456
     31 H          -2.0977    1.6299    0.4602 H       1  UNL1        0.0388
     32 H          -1.0927    3.0907    0.6165 H       1  UNL1        0.0388
     33 O          -2.7051    3.3546   -1.6201 O.co2   1  UNL1       -0.5494
@<TRIPOS>UNITY_ATOM_ATTR
33 1
charge -1
@<TRIPOS>BOND
     1     1     2    1
     2     1    20    1
     3     1    21    1
     4     1    22    1
     5     2     6   ar
     6     2     3   ar
     7     3     4   ar
     8     3    23    1
     9     4     5   ar
    10     4    17    1
    11     5     6   ar
    12     5    16    1
    13     6     7    1
    14     7     8    2
    15     7     9    1
    16     9    14   ar
    17     9    10   ar
    18    10    11   ar
    19    10    24    1
    20    11    12   ar
    21    11    25    1
    22    12    13   ar
    23    12    15    1
    24    13    14   ar
    25    13    26    1
    26    14    27    1
    27    16    28    1
    28    16    29    1
    29    16    30    1
    30    17    18    1
    31    17    31    1
    32    17    32    1
    33    18    19   ar
    34    18    33   ar
