@<TRIPOS>MOLECULE
ZINC15848211
 44 45 0 0 0
SMALL
GASTEIGER

@<TRIPOS>ATOM
      1 C          -4.7213    1.7791   -4.1834 C.3     1  UNL1       -0.0424
      2 C          -4.0393    0.9749   -3.0748 C.3     1  UNL1        0.0749
      3 H          -4.6361    0.9158   -2.1646 H       1  UNL1        0.0540
      4 C          -2.5762    1.3781   -2.8293 C.3     1  UNL1        0.1216
      5 H          -2.3393    1.5492   -1.7792 H       1  UNL1        0.0614
      6 C          -2.2066   -0.0073   -3.3189 C.2     1  UNL1        0.2586
      7 O          -1.1585   -0.5989   -3.4691 O.2     1  UNL1       -0.2718
      8 N          -3.5137   -0.3266   -3.5244 N.am    1  UNL1       -0.1456
      9 S          -4.2561   -1.6975   -4.0829 S.O2    1  UNL1        0.1688
     10 O          -3.3614   -2.7733   -3.8356 O.2     1  UNL1       -0.1264
     11 O          -5.5825   -1.6773   -3.5734 O.2     1  UNL1       -0.1264
     12 O          -4.3688   -1.5641   -5.5948 O.3     1  UNL1       -0.2376
     13 N          -2.1087    2.4575   -3.7026 N.am    1  UNL1       -0.2969
     14 C          -1.0356    3.1927   -3.3498 C.2     1  UNL1        0.2684
     15 O          -0.3968    2.8986   -2.3589 O.2     1  UNL1       -0.2683
     16 C          -0.6349    4.3598   -4.1703 C.2     1  UNL1        0.1898
     17 N           0.3336    5.1347   -3.7716 N.2     1  UNL1       -0.0767
     18 O           1.0756    4.8013   -2.6126 O.2     1  UNL1       -0.3812
     19 C           2.0297    5.7931   -2.2280 C.3     1  UNL1        0.1718
     20 C           2.9607    6.0891   -3.4056 C.3     1  UNL1       -0.0172
     21 C           1.2982    7.0741   -1.8218 C.3     1  UNL1       -0.0172
     22 C           2.8395    5.2861   -1.0626 C.2     1  UNL1        0.0871
     23 O           2.6844    4.1555   -0.6655 O.co2   1  UNL1       -0.5457
     24 C          -1.3343    4.6450   -5.4415 C.ar    1  UNL1        0.1067
     25 C          -0.8986    5.6510   -6.2620 C.ar    1  UNL1        0.0067
     26 S          -2.0834    5.5310   -7.5954 S.2     1  UNL1       -0.0604
     27 C          -3.0310    4.1675   -6.9345 C.ar    1  UNL1        0.1562
     28 N          -2.3930    3.9227   -5.8056 N.ar    1  UNL1       -0.2233
     29 N          -4.1397    3.5324   -7.4683 N.pl3   1  UNL1       -0.3375
     30 H          -4.1273    1.7172   -5.0952 H       1  UNL1        0.0249
     31 H          -5.7152    1.3719   -4.3688 H       1  UNL1        0.0249
     32 H          -4.8073    2.8213   -3.8759 H       1  UNL1        0.0249
     33 H          -4.7922   -2.3191   -6.0258 H       1  UNL1        0.2463
     34 H          -2.5713    2.6430   -4.5347 H       1  UNL1        0.1499
     35 H           2.3750    6.4558   -4.2485 H       1  UNL1        0.0273
     36 H           3.6884    6.8456   -3.1122 H       1  UNL1        0.0273
     37 H           3.4818    5.1765   -3.6949 H       1  UNL1        0.0273
     38 H           0.6350    6.8633   -0.9829 H       1  UNL1        0.0273
     39 H           2.0259    7.8307   -1.5284 H       1  UNL1        0.0273
     40 H           0.7125    7.4408   -2.6647 H       1  UNL1        0.0273
     41 H          -0.0676    6.3296   -6.1380 H       1  UNL1        0.0716
     42 H          -4.5014    3.8226   -8.3203 H       1  UNL1        0.1442
     43 H          -4.5546    2.7974   -6.9903 H       1  UNL1        0.1442
     44 O           3.7330    6.0904   -0.4656 O.co2   1  UNL1       -0.5457
@<TRIPOS>UNITY_ATOM_ATTR
44 1
charge -1
@<TRIPOS>BOND
     1     1     2    1
     2     1    30    1
     3     1    31    1
     4     1    32    1
     5     2     3    1
     6     2     8    1
     7     2     4    1
     8     4     5    1
     9     4     6    1
    10     4    13    1
    11     6     7    2
    12     6     8   am
    13     8     9    1
    14     9    10    2
    15     9    11    2
    16     9    12    1
    17    12    33    1
    18    13    14   am
    19    13    34    1
    20    14    15    2
    21    14    16    1
    22    16    17    2
    23    16    24    1
    24    17    18    1
    25    18    19    1
    26    19    20    1
    27    19    21    1
    28    19    22    1
    29    20    35    1
    30    20    36    1
    31    20    37    1
    32    21    38    1
    33    21    39    1
    34    21    40    1
    35    22    23   ar
    36    22    44   ar
    37    24    28   ar
    38    24    25   ar
    39    25    26   ar
    40    25    41    1
    41    26    27   ar
    42    27    28   ar
    43    27    29    1
    44    29    42    1
    45    29    43    1
