@<TRIPOS>MOLECULE
ZINC03830589
 52 55 0 0 0
SMALL
GASTEIGER

@<TRIPOS>ATOM
      1 C           3.3395    5.7091    1.6899 C.3     1  UNL1       -0.0562
      2 C           2.8957    5.6580    0.2266 C.3     1  UNL1        0.0094
      3 C           1.3720    5.6052    0.1036 C.3     1  UNL1       -0.0178
      4 C           0.7395    6.9569    0.4300 C.3     1  UNL1        0.0603
      5 H          -0.3453    6.8839    0.3523 H       1  UNL1        0.0597
      6 C           1.2628    7.9835   -0.5776 C.3     1  UNL1        0.0045
      7 H           1.0575    7.6384   -1.5909 H       1  UNL1        0.0343
      8 C           2.7684    8.1235   -0.3706 C.3     1  UNL1       -0.0116
      9 H           2.9234    8.3766    0.6782 H       1  UNL1        0.0350
     10 C           3.5002    6.8161   -0.5907 C.3     1  UNL1       -0.0257
     11 H           4.5570    6.9216   -0.3452 H       1  UNL1        0.0313
     12 C           3.3788    6.3272   -2.0461 C.3     1  UNL1       -0.0460
     13 C           3.7243    4.8220   -1.9511 C.3     1  UNL1       -0.0162
     14 C           3.4447    4.3994   -0.4969 C.3     1  UNL1        0.1315
     15 C           2.4184    3.2962   -0.4667 C.2     1  UNL1        0.1902
     16 O           1.6541    3.1571   -1.3913 O.2     1  UNL1       -0.2919
     17 C           2.3459    2.3667    0.7172 C.3     1  UNL1        0.1052
     18 O           1.3010    1.4139    0.5114 O.3     1  UNL1       -0.3874
     19 O           4.6531    3.9621    0.1281 O.3     1  UNL1       -0.3804
     20 C           3.3385    9.2435   -1.1798 C.2     1  UNL1       -0.0616
     21 C           2.6038   10.2564   -1.6375 C.2     1  UNL1        0.0415
     22 C           1.1589   10.2998   -1.3709 C.2     1  UNL1       -0.0157
     23 C           0.3799   11.1563   -2.0616 C.2     1  UNL1       -0.0096
     24 C          -1.0745   11.1127   -1.9106 C.2     1  UNL1        0.1790
     25 O          -1.7823   11.9349   -2.4646 O.2     1  UNL1       -0.2879
     26 C          -1.6652   10.0534   -1.0737 C.2     1  UNL1       -0.0180
     27 C          -0.8831    9.2455   -0.3752 C.2     1  UNL1       -0.0698
     28 C           0.6016    9.3420   -0.3558 C.3     1  UNL1        0.0185
     29 C           1.0234    9.8490    1.0248 C.3     1  UNL1       -0.0516
     30 CL          3.3545   11.5274   -2.5512 Cl      1  UNL1       -0.0835
     31 O           1.1027    7.3522    1.7543 O.3     1  UNL1       -0.3914
     32 H           4.4284    5.7071    1.7395 H       1  UNL1        0.0236
     33 H           2.9563    6.6177    2.1543 H       1  UNL1        0.0236
     34 H           2.9501    4.8389    2.2183 H       1  UNL1        0.0236
     35 H           1.1060    5.3238   -0.9153 H       1  UNL1        0.0297
     36 H           0.9843    4.8554    0.7932 H       1  UNL1        0.0297
     37 H           2.3622    6.4657   -2.4140 H       1  UNL1        0.0269
     38 H           4.0916    6.8469   -2.6864 H       1  UNL1        0.0269
     39 H           4.7758    4.6635   -2.1904 H       1  UNL1        0.0297
     40 H           3.0953    4.2504   -2.6336 H       1  UNL1        0.0297
     41 H           2.1569    2.8952    1.5448 H       1  UNL1        0.0637
     42 H           3.2965    1.8451    0.8284 H       1  UNL1        0.0637
     43 H           1.1967    0.7819    1.2359 H       1  UNL1        0.2100
     44 H           5.0519    3.1853   -0.2873 H       1  UNL1        0.2108
     45 H           4.3949    9.2311   -1.4039 H       1  UNL1        0.0589
     46 H           0.8308   11.8766   -2.7282 H       1  UNL1        0.0659
     47 H          -2.7380    9.9363   -1.0298 H       1  UNL1        0.0653
     48 H          -1.3500    8.4712    0.2154 H       1  UNL1        0.0582
     49 H           2.1095    9.8129    1.1089 H       1  UNL1        0.0241
     50 H           0.6829   10.8763    1.1542 H       1  UNL1        0.0241
     51 H           0.5782    9.2189    1.7948 H       1  UNL1        0.0241
     52 H           0.8187    6.7336    2.4412 H       1  UNL1        0.2098
@<TRIPOS>BOND
     1     1     2    1
     2     1    32    1
     3     1    33    1
     4     1    34    1
     5     2    10    1
     6     2    14    1
     7     2     3    1
     8     3     4    1
     9     3    35    1
    10     3    36    1
    11     4     5    1
    12     4     6    1
    13     4    31    1
    14     6     7    1
    15     6    28    1
    16     6     8    1
    17     8     9    1
    18     8    10    1
    19     8    20    1
    20    10    11    1
    21    10    12    1
    22    12    13    1
    23    12    37    1
    24    12    38    1
    25    13    14    1
    26    13    39    1
    27    13    40    1
    28    14    15    1
    29    14    19    1
    30    15    16    2
    31    15    17    1
    32    17    18    1
    33    17    41    1
    34    17    42    1
    35    18    43    1
    36    19    44    1
    37    20    21    2
    38    20    45    1
    39    21    22    1
    40    21    30    1
    41    22    28    1
    42    22    23    2
    43    23    24    1
    44    23    46    1
    45    24    25    2
    46    24    26    1
    47    26    27    2
    48    26    47    1
    49    27    28    1
    50    27    48    1
    51    28    29    1
    52    29    49    1
    53    29    50    1
    54    29    51    1
    55    31    52    1
