@<TRIPOS>MOLECULE
ZINC00896595
 31 33 0 0 0
SMALL
GASTEIGER

@<TRIPOS>ATOM
      1 C           4.4700   -3.9046   -1.1144 C.ar    1  UNL1       -0.0611
      2 C           4.3341   -3.8661   -2.4911 C.ar    1  UNL1       -0.0603
      3 C           3.2289   -3.2665   -3.0664 C.ar    1  UNL1       -0.0427
      4 C           2.2496   -2.7072   -2.2683 C.ar    1  UNL1        0.0501
      5 C           2.3839   -2.7389   -0.8793 C.ar    1  UNL1        0.0190
      6 C           3.5020   -3.3452   -0.3064 C.ar    1  UNL1       -0.0512
      7 C           1.3408   -2.1368   -0.0174 C.2     1  UNL1        0.0793
      8 N           0.6621   -2.9279    0.7361 N.2     1  UNL1       -0.2428
      9 C          -0.3950   -2.4358    1.6185 C.3     1  UNL1        0.2246
     10 H           0.0103   -1.6735    2.2840 H       1  UNL1        0.0952
     11 C          -1.4922   -1.8400    0.7792 C.2     1  UNL1        0.2686
     12 O          -2.5945   -2.3452    0.8028 O.2     1  UNL1       -0.2705
     13 N          -1.2844   -0.7731    0.0109 N.am    1  UNL1       -0.2812
     14 C          -0.0933   -0.0675   -0.0690 C.ar    1  UNL1        0.0428
     15 C           1.1587   -0.6793   -0.0873 C.ar    1  UNL1        0.0232
     16 C           2.3110    0.1162   -0.1751 C.ar    1  UNL1       -0.0324
     17 C           2.2105    1.4879   -0.2409 C.ar    1  UNL1        0.0417
     18 C           0.9641    2.0932   -0.2204 C.ar    1  UNL1       -0.0416
     19 C          -0.1760    1.3245   -0.1359 C.ar    1  UNL1       -0.0385
     20 CL          3.6454    2.4591   -0.3489 Cl      1  UNL1       -0.0835
     21 O          -0.9174   -3.5192    2.3901 O.3     1  UNL1       -0.3636
     22 CL          0.8586   -1.9614   -2.9913 Cl      1  UNL1       -0.0829
     23 H           5.3358   -4.3742   -0.6715 H       1  UNL1        0.0618
     24 H           5.0948   -4.3060   -3.1190 H       1  UNL1        0.0618
     25 H           3.1286   -3.2397   -4.1414 H       1  UNL1        0.0632
     26 H           3.6098   -3.3762    0.7677 H       1  UNL1        0.0625
     27 H          -2.0240   -0.4651   -0.5360 H       1  UNL1        0.1550
     28 H           3.2846   -0.3510   -0.1910 H       1  UNL1        0.0639
     29 H           0.8864    3.1692   -0.2712 H       1  UNL1        0.0633
     30 H          -1.1440    1.8034   -0.1257 H       1  UNL1        0.0637
     31 H          -0.2627   -3.9506    2.9560 H       1  UNL1        0.2125
@<TRIPOS>BOND
     1     1     6   ar
     2     1     2   ar
     3     1    23    1
     4     2     3   ar
     5     2    24    1
     6     3     4   ar
     7     3    25    1
     8     4     5   ar
     9     4    22    1
    10     5     6   ar
    11     5     7    1
    12     6    26    1
    13     7    15    1
    14     7     8    2
    15     8     9    1
    16     9    10    1
    17     9    11    1
    18     9    21    1
    19    11    12    2
    20    11    13   am
    21    13    14    1
    22    13    27    1
    23    14    19   ar
    24    14    15   ar
    25    15    16   ar
    26    16    17   ar
    27    16    28    1
    28    17    18   ar
    29    17    20    1
    30    18    19   ar
    31    18    29    1
    32    19    30    1
    33    21    31    1
