@<TRIPOS>MOLECULE
ZINC01530927
 37 37 0 0 0
SMALL
GASTEIGER

@<TRIPOS>ATOM
      1 C          -3.0995    8.1003   -0.0789 C.3     1  UNL1       -0.0543
      2 C          -2.3135    7.6949    1.1696 C.3     1  UNL1        0.0063
      3 C          -2.1754    6.2299    1.2083 C.1     1  UNL1       -0.1022
      4 C          -2.0653    5.0615    1.2391 C.1     1  UNL1       -0.0976
      5 C          -1.9272    3.5965    1.2778 C.3     1  UNL1        0.0405
      6 H          -2.9161    3.1389    1.3065 H       1  UNL1        0.0445
      7 C          -1.1412    3.1911    2.5263 C.3     1  UNL1       -0.0500
      8 C          -1.1815    3.1214    0.0292 C.3     1  UNL1        0.1401
      9 C          -1.2003    1.6045    0.0166 C.2     1  UNL1        0.2369
     10 O          -2.2446    0.9887    0.0183 O.2     1  UNL1       -0.2742
     11 N          -0.0111    0.9658    0.0074 N.am    1  UNL1       -0.2388
     12 C           1.1499    1.6306   -0.0002 C.2     1  UNL1        0.3146
     13 O           2.1734    0.9762   -0.0135 O.2     1  UNL1       -0.2518
     14 N           1.2662    2.9635    0.0055 N.am    1  UNL1       -0.2279
     15 C           0.1875    3.7749    0.0196 C.2     1  UNL1        0.2393
     16 O           0.3083    4.9812    0.0250 O.2     1  UNL1       -0.2740
     17 C           2.6042    3.5601   -0.0036 C.3     1  UNL1        0.0124
     18 C          -1.9523    3.6131   -1.1976 C.3     1  UNL1       -0.0114
     19 C          -1.2034    3.2304   -2.4481 C.2     1  UNL1       -0.0896
     20 C          -1.8035    2.5395   -3.3854 C.2     1  UNL1       -0.1026
     21 H          -4.0884    7.6427   -0.0502 H       1  UNL1        0.0239
     22 H          -3.2018    9.1851   -0.1075 H       1  UNL1        0.0239
     23 H          -2.5682    7.7618   -0.9685 H       1  UNL1        0.0239
     24 H          -2.8448    8.0333    2.0592 H       1  UNL1        0.0395
     25 H          -1.3246    8.1524    1.1409 H       1  UNL1        0.0395
     26 H          -1.0390    2.1062    2.5550 H       1  UNL1        0.0242
     27 H          -0.1523    3.6486    2.4976 H       1  UNL1        0.0242
     28 H          -1.6725    3.5295    3.4159 H       1  UNL1        0.0242
     29 H           0.0021   -0.0041    0.0020 H       1  UNL1        0.1591
     30 H           3.3545    2.7695   -0.0142 H       1  UNL1        0.0434
     31 H           2.7188    4.1818   -0.8915 H       1  UNL1        0.0434
     32 H           2.7347    4.1729    0.8884 H       1  UNL1        0.0434
     33 H          -2.9417    3.1558   -1.2124 H       1  UNL1        0.0322
     34 H          -2.0538    4.6974   -1.1523 H       1  UNL1        0.0322
     35 H          -0.1719    3.5258   -2.5715 H       1  UNL1        0.0567
     36 H          -1.2667    2.2652   -4.2816 H       1  UNL1        0.0532
     37 H          -2.8349    2.2441   -3.2620 H       1  UNL1        0.0532
@<TRIPOS>BOND
     1     1     2    1
     2     1    21    1
     3     1    22    1
     4     1    23    1
     5     2     3    1
     6     2    24    1
     7     2    25    1
     8     3     4    3
     9     4     5    1
    10     5     6    1
    11     5     7    1
    12     5     8    1
    13     7    26    1
    14     7    27    1
    15     7    28    1
    16     8    15    1
    17     8     9    1
    18     8    18    1
    19     9    10    2
    20     9    11   am
    21    11    12   am
    22    11    29    1
    23    12    13    2
    24    12    14   am
    25    14    15   am
    26    14    17    1
    27    15    16    2
    28    17    30    1
    29    17    31    1
    30    17    32    1
    31    18    19    1
    32    18    33    1
    33    18    34    1
    34    19    20    2
    35    19    35    1
    36    20    36    1
    37    20    37    1
