@<TRIPOS>MOLECULE
ZINC08552354
 55 58 0 0 0
SMALL
GASTEIGER

@<TRIPOS>ATOM
      1 C           2.9185   -0.4754   -0.5366 C.3     1  UNL1       -0.0619
      2 C           2.3815   -0.1008    0.8403 C.3     1  UNL1       -0.0368
      3 H           3.0324   -0.5245    1.6121 H       1  UNL1        0.0304
      4 C           2.4072    1.4368    0.9733 C.3     1  UNL1       -0.0280
      5 C           1.4013    2.0232   -0.0005 C.2     1  UNL1       -0.0598
      6 C           1.8364    2.9670   -0.8332 C.2     1  UNL1       -0.0194
      7 C           0.9262    3.6371   -1.7636 C.2     1  UNL1        0.1561
      8 O           1.3419    4.3186   -2.6800 O.2     1  UNL1       -0.2927
      9 C          -0.5591    3.4661   -1.5195 C.3     1  UNL1        0.0107
     10 C          -0.8230    2.0011   -1.1922 C.3     1  UNL1       -0.0367
     11 C          -0.0187    1.5243    0.0104 C.3     1  UNL1       -0.0072
     12 C           0.0021   -0.0041    0.0020 C.3     1  UNL1       -0.0286
     13 H           0.3297   -0.3197   -0.9903 H       1  UNL1        0.0312
     14 C           0.9538   -0.5381    1.0739 C.3     1  UNL1       -0.0311
     15 H           0.6586   -0.0154    2.0279 H       1  UNL1        0.0309
     16 C           0.6651   -1.9749    1.3490 C.3     1  UNL1       -0.0296
     17 H          -0.0280   -2.0022    2.2285 H       1  UNL1        0.0310
     18 C           1.8320   -2.9086    1.6936 C.3     1  UNL1       -0.0467
     19 C           1.1922   -4.3208    1.5777 C.3     1  UNL1       -0.0235
     20 C          -0.1433   -4.1384    0.8136 C.3     1  UNL1        0.0689
     21 C          -0.0324   -2.7251    0.2020 C.3     1  UNL1       -0.0004
     22 C          -1.3500   -2.0934   -0.1760 C.3     1  UNL1       -0.0445
     23 C          -1.3777   -0.6147    0.2509 C.3     1  UNL1       -0.0486
     24 C           0.8517   -2.8591   -1.0406 C.3     1  UNL1       -0.0567
     25 C          -0.2692   -5.1772   -0.2980 C.3     1  UNL1       -0.0356
     26 O          -1.2475   -4.2086    1.7090 O.3     1  UNL1       -0.3883
     27 C          -0.7142    2.0306    1.2742 C.3     1  UNL1       -0.0556
     28 H           2.3050   -0.0062   -1.3058 H       1  UNL1        0.0233
     29 H           3.9478   -0.1294   -0.6316 H       1  UNL1        0.0233
     30 H           2.8866   -1.5582   -0.6568 H       1  UNL1        0.0233
     31 H           2.1450    1.7132    1.9905 H       1  UNL1        0.0313
     32 H           3.4045    1.7979    0.7325 H       1  UNL1        0.0313
     33 H           2.8781    3.2597   -0.8046 H       1  UNL1        0.0652
     34 H          -0.8406    4.0479   -0.7564 H       1  UNL1        0.0345
     35 H          -1.1121    3.7477   -2.4196 H       1  UNL1        0.0345
     36 H          -0.5620    1.3866   -2.0532 H       1  UNL1        0.0278
     37 H          -1.8837    1.8714   -0.9728 H       1  UNL1        0.0278
     38 H           2.1657   -2.7357    2.7211 H       1  UNL1        0.0269
     39 H           2.6635   -2.8020    1.0066 H       1  UNL1        0.0269
     40 H           0.9998   -4.7231    2.5715 H       1  UNL1        0.0293
     41 H           1.8535   -4.9844    1.0233 H       1  UNL1        0.0293
     42 H          -2.1755   -2.6234    0.3072 H       1  UNL1        0.0272
     43 H          -1.4905   -2.1579   -1.2608 H       1  UNL1        0.0272
     44 H          -1.6211   -0.5509    1.3129 H       1  UNL1        0.0268
     45 H          -2.1266   -0.0774   -0.3303 H       1  UNL1        0.0268
     46 H           1.0436   -1.8707   -1.4582 H       1  UNL1        0.0236
     47 H           1.7969   -3.3270   -0.7653 H       1  UNL1        0.0236
     48 H           0.3441   -3.4749   -1.7831 H       1  UNL1        0.0236
     49 H           0.6107   -5.1312   -0.9396 H       1  UNL1        0.0257
     50 H          -0.3470   -6.1717    0.1413 H       1  UNL1        0.0257
     51 H          -1.1612   -4.9704   -0.8892 H       1  UNL1        0.0257
     52 H          -1.3642   -5.0749    2.1223 H       1  UNL1        0.2102
     53 H          -0.1761    1.6744    2.1527 H       1  UNL1        0.0238
     54 H          -0.7243    3.1206    1.2716 H       1  UNL1        0.0238
     55 H          -1.7382    1.6579    1.2995 H       1  UNL1        0.0238
@<TRIPOS>BOND
     1     1     2    1
     2     1    28    1
     3     1    29    1
     4     1    30    1
     5     2     3    1
     6     2    14    1
     7     2     4    1
     8     4     5    1
     9     4    31    1
    10     4    32    1
    11     5    11    1
    12     5     6    2
    13     6     7    1
    14     6    33    1
    15     7     8    2
    16     7     9    1
    17     9    10    1
    18     9    34    1
    19     9    35    1
    20    10    11    1
    21    10    36    1
    22    10    37    1
    23    11    12    1
    24    11    27    1
    25    12    13    1
    26    12    23    1
    27    12    14    1
    28    14    15    1
    29    14    16    1
    30    16    17    1
    31    16    21    1
    32    16    18    1
    33    18    19    1
    34    18    38    1
    35    18    39    1
    36    19    20    1
    37    19    40    1
    38    19    41    1
    39    20    21    1
    40    20    25    1
    41    20    26    1
    42    21    22    1
    43    21    24    1
    44    22    23    1
    45    22    42    1
    46    22    43    1
    47    23    44    1
    48    23    45    1
    49    24    46    1
    50    24    47    1
    51    24    48    1
    52    25    49    1
    53    25    50    1
    54    25    51    1
    55    26    52    1
    56    27    53    1
    57    27    54    1
    58    27    55    1
