@<TRIPOS>MOLECULE
ZINC03830765
 44 47 0 0 0
SMALL
GASTEIGER

@<TRIPOS>ATOM
      1 C           4.4177    5.9033   -1.2782 C.3     1  UNL1       -0.0569
      2 C           4.6667    5.4634    0.1671 C.3     1  UNL1       -0.0030
      3 C           5.2088    4.0569    0.2045 C.3     1  UNL1       -0.0445
      4 C           4.0763    3.0402    0.4456 C.3     1  UNL1       -0.0454
      5 C           2.7951    3.5507   -0.1825 C.3     1  UNL1       -0.0125
      6 H           2.9997    3.8551   -1.2066 H       1  UNL1        0.0352
      7 C           1.6754    2.5553   -0.2644 C.ar    1  UNL1       -0.0406
      8 C           1.9503    1.2019   -0.3112 C.ar    1  UNL1       -0.0546
      9 C           0.9239    0.2814   -0.3950 C.ar    1  UNL1       -0.0199
     10 C          -0.3898    0.7251   -0.4403 C.ar    1  UNL1        0.1171
     11 C          -0.6619    2.0805   -0.3909 C.ar    1  UNL1       -0.0167
     12 C           0.3677    3.0104   -0.3014 C.ar    1  UNL1       -0.0405
     13 C          -0.0160    4.4638   -0.2505 C.3     1  UNL1       -0.0270
     14 C           1.1873    5.4097   -0.2368 C.3     1  UNL1       -0.0454
     15 C           2.2772    4.7620    0.6038 C.3     1  UNL1       -0.0305
     16 H           1.7859    4.3607    1.5152 H       1  UNL1        0.0310
     17 C           3.4100    5.6243    1.0455 C.3     1  UNL1       -0.0298
     18 H           3.6770    5.3411    2.0870 H       1  UNL1        0.0310
     19 C           3.1981    7.1443    1.0276 C.3     1  UNL1       -0.0470
     20 C           4.6446    7.7036    1.1212 C.3     1  UNL1       -0.0261
     21 C           5.5945    6.5247    0.7953 C.3     1  UNL1        0.0609
     22 H           6.0457    6.1299    1.6984 H       1  UNL1        0.0599
     23 O           6.5846    6.9204   -0.1514 O.3     1  UNL1       -0.3912
     24 O          -1.4079   -0.1714   -0.5313 O.3     1  UNL1       -0.5068
     25 H           4.2392    6.9782   -1.3052 H       1  UNL1        0.0236
     26 H           5.2904    5.6645   -1.8861 H       1  UNL1        0.0236
     27 H           3.5463    5.3802   -1.6722 H       1  UNL1        0.0236
     28 H           5.7073    3.8276   -0.7450 H       1  UNL1        0.0272
     29 H           5.9529    3.9698    1.0057 H       1  UNL1        0.0272
     30 H           3.9333    2.8978    1.5195 H       1  UNL1        0.0271
     31 H           4.3536    2.0811   -0.0004 H       1  UNL1        0.0271
     32 H           2.9708    0.8497   -0.2847 H       1  UNL1        0.0622
     33 H           1.1439   -0.7747   -0.4292 H       1  UNL1        0.0654
     34 H          -1.6857    2.4232   -0.4224 H       1  UNL1        0.0657
     35 H          -0.6071    4.6386    0.6518 H       1  UNL1        0.0313
     36 H          -0.6356    4.6967   -1.1185 H       1  UNL1        0.0313
     37 H           0.8920    6.3642    0.1999 H       1  UNL1        0.0271
     38 H           1.5365    5.5654   -1.2572 H       1  UNL1        0.0271
     39 H           2.7080    7.4684    0.1138 H       1  UNL1        0.0269
     40 H           2.6161    7.4546    1.8991 H       1  UNL1        0.0269
     41 H           4.8383    8.0705    2.1292 H       1  UNL1        0.0290
     42 H           4.7818    8.5084    0.4003 H       1  UNL1        0.0290
     43 H           7.2017    7.5870    0.1802 H       1  UNL1        0.2098
     44 H          -1.7462   -0.4704    0.3239 H       1  UNL1        0.2921
@<TRIPOS>BOND
     1     1     2    1
     2     1    25    1
     3     1    26    1
     4     1    27    1
     5     2    17    1
     6     2    21    1
     7     2     3    1
     8     3     4    1
     9     3    28    1
    10     3    29    1
    11     4     5    1
    12     4    30    1
    13     4    31    1
    14     5     6    1
    15     5    15    1
    16     5     7    1
    17     7    12   ar
    18     7     8   ar
    19     8     9   ar
    20     8    32    1
    21     9    10   ar
    22     9    33    1
    23    10    11   ar
    24    10    24    1
    25    11    12   ar
    26    11    34    1
    27    12    13    1
    28    13    14    1
    29    13    35    1
    30    13    36    1
    31    14    15    1
    32    14    37    1
    33    14    38    1
    34    15    16    1
    35    15    17    1
    36    17    18    1
    37    17    19    1
    38    19    20    1
    39    19    39    1
    40    19    40    1
    41    20    21    1
    42    20    41    1
    43    20    42    1
    44    21    22    1
    45    21    23    1
    46    23    43    1
    47    24    44    1
