@<TRIPOS>MOLECULE
ZINC09209372
 26 26 0 0 0
SMALL
GASTEIGER

@<TRIPOS>ATOM
      1 C           2.0108    1.1597    3.7737 C.3     1  UNL1        0.0730
      2 C           1.3410    1.6576    2.4914 C.3     1  UNL1        0.1132
      3 H           1.3178    2.7474    2.4930 H       1  UNL1        0.0647
      4 C           2.1334    1.1656    1.2774 C.3     1  UNL1        0.1147
      5 H           3.1389    1.5856    1.3041 H       1  UNL1        0.0648
      6 C           1.4239    1.6173   -0.0029 C.3     1  UNL1        0.1304
      7 H           1.9520    1.2229   -0.8710 H       1  UNL1        0.0679
      8 C          -0.0127    1.0858    0.0080 C.3     1  UNL1        0.0565
      9 H           0.0021   -0.0041    0.0020 H       1  UNL1        0.0927
     10 C          -0.7222    1.5809    1.2711 C.3     1  UNL1        0.2030
     11 H          -0.7724    2.6696    1.2567 H       1  UNL1        0.0968
     12 O           0.0059    1.1526    2.4237 O.3     1  UNL1       -0.3383
     13 O          -2.0453    1.0431    1.3162 O.3     1  UNL1       -0.3627
     14 O           1.4049    3.0450   -0.0606 O.3     1  UNL1       -0.3834
     15 O           2.2109   -0.2611    1.3024 O.3     1  UNL1       -0.3864
     16 O           1.3403    1.7139    4.9074 O.3     1  UNL1       -0.3924
     17 H           1.9544    0.0719    3.8142 H       1  UNL1        0.0584
     18 H           3.0556    1.4699    3.7820 H       1  UNL1        0.0584
     19 H          -2.5544    1.3158    2.0919 H       1  UNL1        0.2127
     20 H          -1.6769    1.2377   -1.1944 H       1  UNL1        0.2000
     21 H          -0.6970    2.5810   -1.2308 H       1  UNL1        0.2000
     22 H           0.9637    3.4011   -0.8439 H       1  UNL1        0.2102
     23 H           2.6494   -0.6174    2.0872 H       1  UNL1        0.2100
     24 H           1.7125    1.4404    5.7570 H       1  UNL1        0.2095
     25 N          -0.7116    1.5629   -1.1984 N.4     1  UNL1        0.2263
     26 H          -0.2373    1.1944   -2.0311 H       1  UNL1        0.2000
@<TRIPOS>UNITY_ATOM_ATTR
25 1
charge 1
@<TRIPOS>BOND
     1     1     2    1
     2     1    16    1
     3     1    17    1
     4     1    18    1
     5     2     3    1
     6     2    12    1
     7     2     4    1
     8     4     5    1
     9     4     6    1
    10     4    15    1
    11     6     7    1
    12     6     8    1
    13     6    14    1
    14     8     9    1
    15     8    10    1
    16     8    25    1
    17    10    11    1
    18    10    12    1
    19    10    13    1
    20    13    19    1
    21    14    22    1
    22    15    23    1
    23    16    24    1
    24    20    25    1
    25    21    25    1
    26    25    26    1
