@<TRIPOS>MOLECULE
ZINC03830493
 67 69 0 0 0
SMALL
GASTEIGER

@<TRIPOS>ATOM
      1 C          -7.6439   13.0014   -1.9160 C.3     1  UNL1        0.0100
      2 C          -7.5237   11.4765   -1.8839 C.3     1  UNL1        0.2468
      3 H          -6.4711   11.1957   -1.8471 H       1  UNL1        0.1204
      4 O          -8.1322   10.9178   -3.0780 O.3     1  UNL1       -0.4206
      5 C          -7.7587    9.6714   -3.4292 C.2     1  UNL1        0.3567
      6 O          -6.9885    9.0473   -2.7265 O.2     1  UNL1       -0.2434
      7 C          -8.2844    9.0654   -4.6658 C.2     1  UNL1        0.1255
      8 C          -7.4606    8.4406   -5.4907 C.2     1  UNL1        0.0057
      9 C          -7.7682    7.8070   -6.8085 C.3     1  UNL1        0.0220
     10 S          -9.5451    7.4619   -6.9948 S.3     1  UNL1       -0.1310
     11 C         -10.2868    8.9823   -6.3112 C.3     1  UNL1        0.1042
     12 H         -10.2810    9.8492   -6.9719 H       1  UNL1        0.0644
     13 N          -9.6593    9.1575   -4.9581 N.am    1  UNL1       -0.2489
     14 C         -10.8035    9.2955   -4.2715 C.2     1  UNL1        0.2440
     15 O         -11.1098    9.6702   -3.1593 O.2     1  UNL1       -0.2731
     16 C         -11.5464    8.7812   -5.4847 C.3     1  UNL1        0.1286
     17 H         -12.3702    9.4259   -5.7909 H       1  UNL1        0.0622
     18 N         -11.9443    7.3762   -5.3676 N.am    1  UNL1       -0.2963
     19 C         -13.2305    7.0584   -5.1207 C.2     1  UNL1        0.2699
     20 O         -14.0601    7.9372   -4.9951 O.2     1  UNL1       -0.2683
     21 C         -13.6332    5.6366   -5.0022 C.2     1  UNL1        0.2059
     22 N         -12.7424    4.6931   -5.1371 N.2     1  UNL1       -0.0763
     23 O         -13.1270    3.3350   -5.0239 O.2     1  UNL1       -0.3964
     24 C         -12.0510    2.4101   -5.1935 C.3     1  UNL1        0.1072
     25 C         -15.0392    5.2892   -4.7322 C.ar    1  UNL1        0.1612
     26 C         -15.5400    4.0292   -4.5948 C.ar    1  UNL1       -0.0141
     27 C         -16.9191    4.1659   -4.3519 C.ar    1  UNL1       -0.0232
     28 C         -17.1905    5.4875   -4.3430 C.ar    1  UNL1        0.0926
     29 O         -16.0534    6.1622   -4.5729 O.2     1  UNL1       -0.4611
     30 C          -6.0240    8.3574   -5.0433 C.3     1  UNL1        0.1182
     31 O          -5.3141    9.5498   -5.4704 O.3     1  UNL1       -0.4460
     32 C          -4.0406    9.6848   -5.0549 C.2     1  UNL1        0.3980
     33 O          -3.5026    8.7837   -4.4425 O.2     1  UNL1       -0.2267
     34 N          -3.3625   10.8194   -5.3183 N.am    1  UNL1       -0.2950
     35 O          -8.2032   10.9621   -0.7083 O.3     1  UNL1       -0.4230
     36 C          -7.8268   11.4602    0.4799 C.2     1  UNL1        0.3417
     37 O          -6.9579   12.2979    0.5360 O.2     1  UNL1       -0.2475
     38 C          -8.4880   10.9746    1.7441 C.3     1  UNL1        0.1596
     39 C          -9.9885   11.2666    1.6794 C.3     1  UNL1       -0.0256
     40 C          -8.2675    9.4675    1.8885 C.3     1  UNL1       -0.0256
     41 O          -7.9195   11.6491    2.8683 O.3     1  UNL1       -0.3659
     42 C          -8.4794   11.2594    4.1240 C.3     1  UNL1        0.0379
     43 H          -7.1104   13.4259   -1.0655 H       1  UNL1        0.0301
     44 H          -7.2118   13.3806   -2.8420 H       1  UNL1        0.0301
     45 H          -8.6953   13.2842   -1.8632 H       1  UNL1        0.0301
     46 H          -7.4510    8.4773   -7.6074 H       1  UNL1        0.0424
     47 H          -7.2154    6.8711   -6.8901 H       1  UNL1        0.0424
     48 H         -11.2820    6.6746   -5.4679 H       1  UNL1        0.1499
     49 H         -12.4275    1.3922   -5.0925 H       1  UNL1        0.0687
     50 H         -11.6136    2.5391   -6.1835 H       1  UNL1        0.0687
     51 H         -11.2911    2.5935   -4.4339 H       1  UNL1        0.0687
     52 H         -14.9860    3.1046   -4.6620 H       1  UNL1        0.0656
     53 H         -17.6261    3.3643   -4.1971 H       1  UNL1        0.0649
     54 H         -18.1622    5.9293   -4.1784 H       1  UNL1        0.1029
     55 H          -5.9857    8.2814   -3.9566 H       1  UNL1        0.0747
     56 H          -5.5560    7.4779   -5.4857 H       1  UNL1        0.0747
     57 H          -3.7771   11.5213   -5.8440 H       1  UNL1        0.1482
     58 H          -2.4599   10.9342   -4.9820 H       1  UNL1        0.1482
     59 H         -10.4221   10.7522    0.8219 H       1  UNL1        0.0263
     60 H         -10.4667   10.9154    2.5938 H       1  UNL1        0.0263
     61 H         -10.1456   12.3403    1.5765 H       1  UNL1        0.0263
     62 H          -7.1985    9.2595    1.9346 H       1  UNL1        0.0263
     63 H          -8.7457    9.1163    2.8029 H       1  UNL1        0.0263
     64 H          -8.7012    8.9530    1.0310 H       1  UNL1        0.0263
     65 H          -9.5482   11.4734    4.1273 H       1  UNL1        0.0524
     66 H          -8.3221   10.1916    4.2763 H       1  UNL1        0.0524
     67 H          -7.9949   11.8161    4.9262 H       1  UNL1        0.0524
@<TRIPOS>BOND
     1     1     2    1
     2     1    43    1
     3     1    44    1
     4     1    45    1
     5     2     3    1
     6     2     4    1
     7     2    35    1
     8     4     5    1
     9     5     6    2
    10     5     7    1
    11     7    13    1
    12     7     8    2
    13     8     9    1
    14     8    30    1
    15     9    10    1
    16     9    46    1
    17     9    47    1
    18    10    11    1
    19    11    12    1
    20    11    16    1
    21    11    13    1
    22    13    14   am
    23    14    15    2
    24    14    16    1
    25    16    17    1
    26    16    18    1
    27    18    19   am
    28    18    48    1
    29    19    20    2
    30    19    21    1
    31    21    22    2
    32    21    25    1
    33    22    23    1
    34    23    24    1
    35    24    49    1
    36    24    50    1
    37    24    51    1
    38    25    29   ar
    39    25    26   ar
    40    26    27   ar
    41    26    52    1
    42    27    28   ar
    43    27    53    1
    44    28    29   ar
    45    28    54    1
    46    30    31    1
    47    30    55    1
    48    30    56    1
    49    31    32    1
    50    32    33    2
    51    32    34   am
    52    34    57    1
    53    34    58    1
    54    35    36    1
    55    36    37    2
    56    36    38    1
    57    38    39    1
    58    38    40    1
    59    38    41    1
    60    39    59    1
    61    39    60    1
    62    39    61    1
    63    40    62    1
    64    40    63    1
    65    40    64    1
    66    41    42    1
    67    42    65    1
    68    42    66    1
    69    42    67    1
