@<TRIPOS>MOLECULE
ZINC03830487
 44 46 0 0 0
SMALL
GASTEIGER

@<TRIPOS>ATOM
      1 C          -3.4105   -2.4364   -1.2152 C.3     1  UNL1        0.1072
      2 O          -3.5630   -1.0165   -1.1631 O.2     1  UNL1       -0.3964
      3 N          -2.3502   -0.3141   -0.9610 N.2     1  UNL1       -0.0763
      4 C          -2.3543    0.9888   -0.8947 C.2     1  UNL1        0.2059
      5 C          -3.6208    1.7293   -1.0300 C.ar    1  UNL1        0.1612
      6 C          -4.8522    1.1795   -1.2268 C.ar    1  UNL1       -0.0141
      7 C          -5.7658    2.2471   -1.2971 C.ar    1  UNL1       -0.0232
      8 C          -5.0578    3.3850   -1.1417 C.ar    1  UNL1        0.0926
      9 O          -3.7644    3.0681   -0.9750 O.2     1  UNL1       -0.4611
     10 C          -1.0848    1.7242   -0.6831 C.2     1  UNL1        0.2699
     11 O          -1.0886    2.9376   -0.6213 O.2     1  UNL1       -0.2683
     12 N           0.0738    1.0467   -0.5593 N.am    1  UNL1       -0.2963
     13 CA          1.3293    1.7738   -0.3562 C.3     1  UNL1        0.1286
     14 HA          1.1788    2.7481    0.1088 H       1  UNL1        0.0622
     15 C           2.4022    0.9414    0.3265 C.3     1  UNL1        0.1041
     16 H           2.1938   -0.1244    0.4204 H       1  UNL1        0.0644
     17 N           3.2175    1.3703   -0.8581 N.am    1  UNL1       -0.2533
     18 C           2.1952    1.8298   -1.5953 C.2     1  UNL1        0.2438
     19 O           2.0348    2.1514   -2.7537 O.2     1  UNL1       -0.2731
     20 CA          4.6227    1.3344   -0.9500 C.2     1  UNL1        0.0631
     21 C           5.3678    1.2707    0.1409 C.2     1  UNL1        0.0004
     22 C           4.9250    1.1765    1.5648 C.3     1  UNL1        0.0219
     23 S           3.1974    1.7089    1.7727 S.3     1  UNL1       -0.1310
     24 C           6.8581    1.2959   -0.0814 C.3     1  UNL1        0.1180
     25 O           7.5399    1.1295    1.1897 O.3     1  UNL1       -0.4460
     26 C           8.8823    1.2324    1.1814 C.2     1  UNL1        0.3980
     27 O           9.4751    1.3635    0.1288 O.2     1  UNL1       -0.2267
     28 N           9.5687    1.1900    2.3405 N.am    1  UNL1       -0.2950
     29 C           5.2688    1.3677   -2.2746 C.2     1  UNL1        0.0860
     30 O           4.5922    1.3099   -3.2822 O.co2   1  UNL1       -0.5433
     31 H          -4.3840   -2.9009   -1.3723 H       1  UNL1        0.0687
     32 H          -2.7451   -2.7005   -2.0371 H       1  UNL1        0.0687
     33 H          -2.9862   -2.7910   -0.2758 H       1  UNL1        0.0687
     34 H          -5.0822    0.1277   -1.3120 H       1  UNL1        0.0656
     35 H          -6.8325    2.1703   -1.4476 H       1  UNL1        0.0649
     36 H          -5.4652    4.3852   -1.1456 H       1  UNL1        0.1029
     37 H           0.0768    0.0780   -0.6086 H       1  UNL1        0.1499
     38 H           5.0208    0.1434    1.8989 H       1  UNL1        0.0424
     39 H           5.5674    1.8077    2.1789 H       1  UNL1        0.0424
     40 H           7.1390    0.4848   -0.7533 H       1  UNL1        0.0747
     41 H           7.1433    2.2500   -0.5245 H       1  UNL1        0.0747
     42 H           9.1038    1.0129    3.1732 H       1  UNL1        0.1482
     43 H          10.5275    1.3366    2.3420 H       1  UNL1        0.1482
     44 OXT         6.6100    1.4622   -2.3679 O.co2   1  UNL1       -0.5433
@<TRIPOS>UNITY_ATOM_ATTR
44 1
charge -1
@<TRIPOS>BOND
     1     1     2    1
     2     1    31    1
     3     1    32    1
     4     1    33    1
     5     2     3    1
     6     3     4    2
     7     4     5    1
     8     4    10    1
     9     5     9   ar
    10     5     6   ar
    11     6     7   ar
    12     6    34    1
    13     7     8   ar
    14     7    35    1
    15     8     9   ar
    16     8    36    1
    17    10    11    2
    18    10    12   am
    19    12    13    1
    20    12    37    1
    21    13    14    1
    22    13    18    1
    23    13    15    1
    24    15    16    1
    25    15    23    1
    26    15    17    1
    27    17    18   am
    28    17    20    1
    29    18    19    2
    30    20    21    2
    31    20    29    1
    32    21    22    1
    33    21    24    1
    34    22    23    1
    35    22    38    1
    36    22    39    1
    37    24    25    1
    38    24    40    1
    39    24    41    1
    40    25    26    1
    41    26    27    2
    42    26    28   am
    43    28    42    1
    44    28    43    1
    45    29    30   ar
    46    29    44   ar
