@<TRIPOS>MOLECULE
ZINC00897234
 28 29 0 0 0
SMALL
GASTEIGER

@<TRIPOS>ATOM
      1 C          -0.1243    4.4031    2.2767 C.ar    1  UNL1       -0.0186
      2 C          -0.1553    3.2896    1.4387 C.ar    1  UNL1        0.0565
      3 C          -1.3698    2.8837    0.9021 C.ar    1  UNL1        0.1280
      4 C          -2.5337    3.5572    1.2093 C.ar    1  UNL1       -0.0057
      5 C          -2.4967    4.6577    2.0460 C.ar    1  UNL1        0.1252
      6 C          -1.2893    5.0803    2.5750 C.ar    1  UNL1        0.0691
      7 CL         -1.2405    6.4671    3.6182 Cl      1  UNL1       -0.0815
      8 S          -3.9826    5.5200    2.4373 S.O2    1  UNL1        0.0574
      9 O          -3.7184    6.9003    2.2273 O.2     1  UNL1       -0.1532
     10 O          -5.0361    4.8362    1.7725 O.2     1  UNL1       -0.1532
     11 N          -4.2458    5.3301    4.0612 N.3     1  UNL1       -0.2035
     12 S          -1.4166    1.5026   -0.2064 S.O2    1  UNL1        0.0619
     13 O          -1.5357    2.0259   -1.5221 O.2     1  UNL1       -0.1529
     14 O          -2.3371    0.5657    0.3360 O.2     1  UNL1       -0.1529
     15 N           0.1007    0.8189   -0.0893 N.3     1  UNL1       -0.1673
     16 C           1.2299    1.7667   -0.0002 C.3     1  UNL1        0.1215
     17 H           2.1639    1.2142    0.1012 H       1  UNL1        0.0709
     18 N           1.0347    2.6185    1.1705 N.pl3   1  UNL1       -0.3238
     19 C           1.2753    2.6309   -1.2619 C.3     1  UNL1        0.1405
     20 CL          2.7157    3.7135   -1.1973 Cl      1  UNL1       -0.1012
     21 CL          1.3867    1.5685   -2.7144 Cl      1  UNL1       -0.1012
     22 H           0.8143    4.7372    2.6935 H       1  UNL1        0.0652
     23 H          -3.4744    3.2253    0.7955 H       1  UNL1        0.0658
     24 H          -3.6226    4.8144    4.5965 H       1  UNL1        0.1442
     25 H          -5.0231    5.7347    4.4771 H       1  UNL1        0.1442
     26 H           0.2334   -0.1420   -0.0841 H       1  UNL1        0.1502
     27 H           1.7716    2.7215    1.7928 H       1  UNL1        0.1477
     28 H           0.3696    3.2345   -1.3218 H       1  UNL1        0.0667
@<TRIPOS>BOND
     1     1     6   ar
     2     1     2   ar
     3     1    22    1
     4     2    18    1
     5     2     3   ar
     6     3     4   ar
     7     3    12    1
     8     4     5   ar
     9     4    23    1
    10     5     6   ar
    11     5     8    1
    12     6     7    1
    13     8     9    2
    14     8    10    2
    15     8    11    1
    16    11    24    1
    17    11    25    1
    18    12    13    2
    19    12    14    2
    20    12    15    1
    21    15    16    1
    22    15    26    1
    23    16    17    1
    24    16    18    1
    25    16    19    1
    26    18    27    1
    27    19    20    1
    28    19    21    1
    29    19    28    1
