@<TRIPOS>MOLECULE
ZINC11592715
 50 51 0 0 0
SMALL
GASTEIGER

@<TRIPOS>ATOM
      1 C           1.4191    1.6207    2.4420 C.3     1  UNL1       -0.0193
      2 C          -0.0162    1.0911    2.4293 C.3     1  UNL1       -0.0203
      3 C          -0.7598    1.6033    3.6644 C.3     1  UNL1       -0.0193
      4 C           0.0045   -0.4387    2.4444 C.3     1  UNL1       -0.0193
      5 C          -0.0127    1.0858    0.0080 C.3     1  UNL1       -0.0033
      6 C          -0.7527    1.5927   -1.2315 C.3     1  UNL1        0.1285
      7 H          -0.7675    2.6825   -1.2255 H       1  UNL1        0.0681
      8 C          -0.0366    1.0992   -2.4903 C.3     1  UNL1        0.1204
      9 O          -0.6577    1.6670   -3.6452 O.3     1  UNL1       -0.4889
     10 C          -0.1387    1.3279   -4.8545 C.ar    1  UNL1        0.1241
     11 C           0.9479    0.4720   -4.9212 C.ar    1  UNL1       -0.0196
     12 C           1.4713    0.1247   -6.1514 C.ar    1  UNL1       -0.0580
     13 C           0.9169    0.6424   -7.3043 C.ar    1  UNL1       -0.0580
     14 C          -0.1683    1.5072   -7.2420 C.ar    1  UNL1       -0.0381
     15 C          -0.6997    1.8482   -6.0192 C.ar    1  UNL1        0.0001
     16 C          -1.8850    2.7667   -5.8775 C.3     1  UNL1        0.0046
     17 C          -2.0999    3.5684   -7.1596 C.3     1  UNL1        0.0854
     18 H          -1.2847    4.2803   -7.2891 H       1  UNL1        0.0622
     19 C          -2.1258    2.5925   -8.3419 C.3     1  UNL1        0.0853
     20 H          -2.8145    1.7751   -8.1282 H       1  UNL1        0.0622
     21 C          -0.7163    2.0390   -8.5406 C.3     1  UNL1        0.0013
     22 O          -2.5447    3.2781   -9.5237 O.3     1  UNL1       -0.3889
     23 O          -3.3433    4.2689   -7.0864 O.3     1  UNL1       -0.3889
     24 O          -2.0933    1.0980   -1.2214 O.3     1  UNL1       -0.3831
     25 H           1.4044    2.7106    2.4312 H       1  UNL1        0.0287
     26 H           1.9267    1.2731    3.3418 H       1  UNL1        0.0287
     27 H           1.9489    1.2558    1.5620 H       1  UNL1        0.0287
     28 H          -1.7824    1.2260    3.6554 H       1  UNL1        0.0287
     29 H          -0.2522    1.2557    4.5642 H       1  UNL1        0.0287
     30 H          -0.7745    2.6932    3.6536 H       1  UNL1        0.0287
     31 H           0.5342   -0.8036    1.5645 H       1  UNL1        0.0287
     32 H           0.5121   -0.7863    3.3442 H       1  UNL1        0.0287
     33 H          -1.0181   -0.8160    2.4354 H       1  UNL1        0.0287
     34 H           0.0021   -0.0041    0.0020 H       1  UNL1        0.0841
     35 H           1.0099    1.4631    0.0003 H       1  UNL1        0.0841
     36 H           1.0101    1.4016   -2.4550 H       1  UNL1        0.0725
     37 H          -0.0992    0.0122   -2.5415 H       1  UNL1        0.0725
     38 H           1.3818    0.0748   -4.0155 H       1  UNL1        0.0654
     39 H           2.3151   -0.5468   -6.2107 H       1  UNL1        0.0619
     40 H           1.3311    0.3726   -8.2645 H       1  UNL1        0.0620
     41 H          -2.7762    2.1740   -5.6707 H       1  UNL1        0.0340
     42 H          -1.7106    3.4533   -5.0492 H       1  UNL1        0.0340
     43 H          -0.0662    2.8339   -8.9063 H       1  UNL1        0.0339
     44 H          -0.7470    1.2337   -9.2744 H       1  UNL1        0.0339
     45 H          -2.5676    2.7214  -10.3141 H       1  UNL1        0.2099
     46 H          -3.3947    4.9040   -6.3590 H       1  UNL1        0.2099
     47 H          -2.1566    0.1331   -1.2259 H       1  UNL1        0.2102
     48 N          -0.7091    1.5657    1.2166 N.4     1  UNL1        0.2327
     49 H          -0.7230    2.5923    1.2143 H       1  UNL1        0.2020
     50 H          -1.6724    1.2103    1.2160 H       1  UNL1        0.2020
@<TRIPOS>UNITY_ATOM_ATTR
48 1
charge 1
@<TRIPOS>BOND
     1     1     2    1
     2     1    25    1
     3     1    26    1
     4     1    27    1
     5     2     3    1
     6     2     4    1
     7     2    48    1
     8     3    28    1
     9     3    29    1
    10     3    30    1
    11     4    31    1
    12     4    32    1
    13     4    33    1
    14     5     6    1
    15     5    34    1
    16     5    35    1
    17     5    48    1
    18     6     7    1
    19     6     8    1
    20     6    24    1
    21     8     9    1
    22     8    36    1
    23     8    37    1
    24     9    10    1
    25    10    15   ar
    26    10    11   ar
    27    11    12   ar
    28    11    38    1
    29    12    13   ar
    30    12    39    1
    31    13    14   ar
    32    13    40    1
    33    14    21    1
    34    14    15   ar
    35    15    16    1
    36    16    17    1
    37    16    41    1
    38    16    42    1
    39    17    18    1
    40    17    19    1
    41    17    23    1
    42    19    20    1
    43    19    21    1
    44    19    22    1
    45    21    43    1
    46    21    44    1
    47    22    45    1
    48    23    46    1
    49    24    47    1
    50    48    49    1
    51    48    50    1
