@<TRIPOS>MOLECULE
ZINC11616701
 76 79 0 0 0
SMALL
GASTEIGER

@<TRIPOS>ATOM
      1 C          -7.5735   -1.3278    4.0128 C.3     1  UNL1       -0.0648
      2 C          -6.3439   -0.5538    4.4923 C.3     1  UNL1       -0.0458
      3 C          -6.2117    0.7417    3.6891 C.3     1  UNL1        0.0447
      4 C          -5.0006    1.5041    4.1614 C.2     1  UNL1        0.3080
      5 O          -4.3137    1.0571    5.0493 O.2     1  UNL1       -0.2508
      6 O          -4.6849    2.6797    3.5957 O.3     1  UNL1       -0.4494
      7 C          -3.4344    3.2936    4.0052 C.3     1  UNL1        0.1821
      8 C          -3.2905    4.6836    3.3577 C.3     1  UNL1        0.0042
      9 H          -3.2181    5.4501    4.1293 H       1  UNL1        0.0341
     10 C          -1.9901    4.6487    2.5223 C.3     1  UNL1       -0.0426
     11 C          -1.1733    3.5191    3.1769 C.3     1  UNL1       -0.0253
     12 H          -0.7463    3.8805    4.1125 H       1  UNL1        0.0311
     13 C          -2.2339    2.4505    3.4979 C.3     1  UNL1        0.0208
     14 C          -2.7010    1.7475    2.2212 C.3     1  UNL1       -0.0141
     15 C          -1.5146    1.1880    1.4402 C.3     1  UNL1        0.0910
     16 H          -1.8732    0.6680    0.5519 H       1  UNL1        0.0626
     17 C          -0.6131    2.3553    1.0248 C.3     1  UNL1        0.1526
     18 C          -0.0650    3.0134    2.2854 C.3     1  UNL1        0.0003
     19 H           0.5192    2.2737    2.8327 H       1  UNL1        0.0336
     20 C           0.8580    4.1651    1.8668 C.3     1  UNL1       -0.0432
     21 C           2.1426    3.5521    1.3068 C.3     1  UNL1       -0.0301
     22 C           1.8200    2.5053    0.2812 C.2     1  UNL1       -0.0532
     23 C           2.8254    2.0399   -0.4958 C.2     1  UNL1       -0.0148
     24 C           2.4444    0.9274   -1.4085 C.2     1  UNL1        0.1787
     25 O           2.8390    0.8587   -2.5575 O.2     1  UNL1       -0.2879
     26 C           1.5439   -0.0951   -0.8079 C.2     1  UNL1       -0.0180
     27 C           0.5532    0.3996   -0.0345 C.2     1  UNL1       -0.0674
     28 C           0.4728    1.8952    0.0947 C.3     1  UNL1        0.0443
     29 C           0.0179    2.3741   -1.2854 C.3     1  UNL1       -0.0493
     30 F          -1.4058    3.2896    0.3495 F       1  UNL1       -0.2377
     31 O          -0.7818    0.2800    2.2652 O.3     1  UNL1       -0.3886
     32 C          -1.7414    1.4657    4.5602 C.3     1  UNL1       -0.0551
     33 C          -4.4893    4.9657    2.4500 C.3     1  UNL1       -0.0583
     34 C          -3.3846    3.4142    5.5065 C.2     1  UNL1        0.2144
     35 O          -2.3195    3.4557    6.0740 O.2     1  UNL1       -0.2895
     36 C          -4.6642    3.4830    6.2997 C.3     1  UNL1        0.1542
     37 O          -4.3547    3.4847    7.7184 O.3     1  UNL1       -0.4568
     38 C          -5.3919    3.5428    8.5683 C.2     1  UNL1        0.3072
     39 O          -6.5211    3.5907    8.1411 O.2     1  UNL1       -0.2509
     40 C          -5.1481    3.5484   10.0555 C.3     1  UNL1        0.0421
     41 C          -6.4875    3.6193   10.7916 C.3     1  UNL1       -0.0552
     42 H          -7.4632   -1.5658    2.9548 H       1  UNL1        0.0230
     43 H          -7.6678   -2.2508    4.5849 H       1  UNL1        0.0230
     44 H          -8.4656   -0.7183    4.1570 H       1  UNL1        0.0230
     45 H          -5.4519   -1.1634    4.3480 H       1  UNL1        0.0268
     46 H          -6.4542   -0.3158    5.5502 H       1  UNL1        0.0268
     47 H          -7.1037    1.3513    3.8333 H       1  UNL1        0.0377
     48 H          -6.1014    0.5037    2.6312 H       1  UNL1        0.0377
     49 H          -1.4603    5.5983    2.5968 H       1  UNL1        0.0272
     50 H          -2.2088    4.4106    1.4813 H       1  UNL1        0.0272
     51 H          -3.3719    0.9307    2.4872 H       1  UNL1        0.0298
     52 H          -3.2373    2.4609    1.5954 H       1  UNL1        0.0298
     53 H           1.0914    4.7849    2.7326 H       1  UNL1        0.0272
     54 H           0.3717    4.7683    1.1001 H       1  UNL1        0.0272
     55 H           2.7093    3.0979    2.1196 H       1  UNL1        0.0310
     56 H           2.7443    4.3352    0.8455 H       1  UNL1        0.0310
     57 H           3.8261    2.4442   -0.4571 H       1  UNL1        0.0656
     58 H           1.6735   -1.1537   -0.9778 H       1  UNL1        0.0653
     59 H          -0.1490   -0.2494    0.4677 H       1  UNL1        0.0583
     60 H          -0.9507    1.9335   -1.5218 H       1  UNL1        0.0242
     61 H          -0.0680    3.4607   -1.2829 H       1  UNL1        0.0242
     62 H           0.7483    2.0691   -2.0348 H       1  UNL1        0.0242
     63 H          -1.2996   -0.4757    2.5747 H       1  UNL1        0.2099
     64 H          -1.5431    2.0016    5.4885 H       1  UNL1        0.0237
     65 H          -2.5047    0.7073    4.7344 H       1  UNL1        0.0237
     66 H          -0.8254    0.9865    4.2146 H       1  UNL1        0.0237
     67 H          -4.5105    4.2374    1.6393 H       1  UNL1        0.0234
     68 H          -5.4094    4.8911    3.0295 H       1  UNL1        0.0234
     69 H          -4.4021    5.9696    2.0343 H       1  UNL1        0.0234
     70 H          -5.1572    4.3208    6.0650 H       1  UNL1        0.0780
     71 H          -5.2846    2.6183    6.0642 H       1  UNL1        0.0780
     72 H          -4.6244    2.6361   10.3412 H       1  UNL1        0.0375
     73 H          -4.5414    4.4141   10.3209 H       1  UNL1        0.0375
     74 H          -6.3112    3.6233   11.8672 H       1  UNL1        0.0235
     75 H          -7.0113    4.5315   10.5059 H       1  UNL1        0.0235
     76 H          -7.0943    2.7536   10.5261 H       1  UNL1        0.0235
@<TRIPOS>BOND
     1     1     2    1
     2     1    42    1
     3     1    43    1
     4     1    44    1
     5     2     3    1
     6     2    45    1
     7     2    46    1
     8     3     4    1
     9     3    47    1
    10     3    48    1
    11     4     5    2
    12     4     6    1
    13     6     7    1
    14     7    13    1
    15     7     8    1
    16     7    34    1
    17     8     9    1
    18     8    10    1
    19     8    33    1
    20    10    11    1
    21    10    49    1
    22    10    50    1
    23    11    12    1
    24    11    18    1
    25    11    13    1
    26    13    14    1
    27    13    32    1
    28    14    15    1
    29    14    51    1
    30    14    52    1
    31    15    16    1
    32    15    17    1
    33    15    31    1
    34    17    28    1
    35    17    18    1
    36    17    30    1
    37    18    19    1
    38    18    20    1
    39    20    21    1
    40    20    53    1
    41    20    54    1
    42    21    22    1
    43    21    55    1
    44    21    56    1
    45    22    28    1
    46    22    23    2
    47    23    24    1
    48    23    57    1
    49    24    25    2
    50    24    26    1
    51    26    27    2
    52    26    58    1
    53    27    28    1
    54    27    59    1
    55    28    29    1
    56    29    60    1
    57    29    61    1
    58    29    62    1
    59    31    63    1
    60    32    64    1
    61    32    65    1
    62    32    66    1
    63    33    67    1
    64    33    68    1
    65    33    69    1
    66    34    35    2
    67    34    36    1
    68    36    37    1
    69    36    70    1
    70    36    71    1
    71    37    38    1
    72    38    39    2
    73    38    40    1
    74    40    41    1
    75    40    72    1
    76    40    73    1
    77    41    74    1
    78    41    75    1
    79    41    76    1
