@<TRIPOS>MOLECULE
ZINC14676557
 64 67 0 0 0
SMALL
GASTEIGER

@<TRIPOS>ATOM
      1 C          -1.8035    2.6166   -1.3574 C.3     1  UNL1       -0.0510
      2 C          -2.4988    3.0337   -0.0599 C.3     1  UNL1        0.0108
      3 N          -2.9808    1.8377    0.6438 N.3     1  UNL1       -0.2409
      4 N          -3.6082    2.1750    1.8093 N.am    1  UNL1       -0.2507
      5 C          -4.1221    1.2129    2.6009 C.2     1  UNL1        0.2309
      6 O          -4.1004    0.0551    2.2403 O.2     1  UNL1       -0.2742
      7 C          -4.7238    1.5756    3.9341 C.3     1  UNL1        0.0551
      8 H          -4.7571    2.6601    4.0391 H       1  UNL1        0.0408
      9 C          -3.8793    0.9730    5.0632 C.3     1  UNL1        0.0243
     10 H          -4.4079    1.0740    6.0111 H       1  UNL1        0.0359
     11 C          -3.6496   -0.5053    4.7564 C.3     1  UNL1        0.0862
     12 H          -2.9862   -0.5950    3.8962 H       1  UNL1        0.0647
     13 C          -4.9548   -1.1925    4.4497 C.ar    1  UNL1       -0.0113
     14 C          -4.9837   -2.5803    4.5136 C.ar    1  UNL1       -0.0102
     15 C          -6.1474   -3.2737    4.2390 C.ar    1  UNL1        0.1666
     16 C          -7.3011   -2.5723    3.8953 C.ar    1  UNL1        0.1665
     17 C          -7.2680   -1.1919    3.8352 C.ar    1  UNL1       -0.0120
     18 C          -6.0960   -0.4993    4.1136 C.ar    1  UNL1       -0.0299
     19 C          -6.1369    1.0046    4.0334 C.3     1  UNL1        0.0214
     20 H          -6.6220    1.3991    4.9263 H       1  UNL1        0.0405
     21 C          -6.9258    1.4163    2.8172 C.ar    1  UNL1       -0.0321
     22 C          -7.7696    2.5093    2.8805 C.ar    1  UNL1       -0.0123
     23 C          -8.4930    2.8948    1.7620 C.ar    1  UNL1        0.1654
     24 C          -8.3777    2.1734    0.5797 C.ar    1  UNL1        0.2035
     25 C          -7.5326    1.0717    0.5219 C.ar    1  UNL1        0.1654
     26 C          -6.8080    0.6964    1.6431 C.ar    1  UNL1       -0.0123
     27 O          -7.4160    0.3628   -0.6328 O.3     1  UNL1       -0.4913
     28 C          -6.5286   -0.7572   -0.6197 C.3     1  UNL1        0.0790
     29 O          -9.0909    2.5447   -0.5184 O.3     1  UNL1       -0.4885
     30 C         -10.3888    1.9675   -0.6746 C.3     1  UNL1        0.0791
     31 O          -9.3187    3.9737    1.8237 O.3     1  UNL1       -0.4913
     32 C          -9.3875    4.6676    3.0710 C.3     1  UNL1        0.0790
     33 O          -8.3059   -3.4687    3.6711 O.3     1  UNL1       -0.4526
     34 C          -7.6536   -4.7384    3.4825 C.3     1  UNL1        0.2332
     35 O          -6.4304   -4.6090    4.2310 O.3     1  UNL1       -0.4526
     36 O          -3.0416   -1.1322    5.8875 O.3     1  UNL1       -0.3868
     37 C          -2.5341    1.6976    5.1436 C.3     1  UNL1        0.0504
     38 O          -1.7883    1.1955    6.2543 O.3     1  UNL1       -0.3946
     39 H          -0.9596    1.9671   -1.1248 H       1  UNL1        0.0242
     40 H          -1.4458    3.5040   -1.8795 H       1  UNL1        0.0242
     41 H          -2.5097    2.0814   -1.9922 H       1  UNL1        0.0242
     42 H          -1.7926    3.5689    0.5749 H       1  UNL1        0.0438
     43 H          -3.3427    3.6832   -0.2925 H       1  UNL1        0.0438
     44 H          -2.2264    1.1895    0.8136 H       1  UNL1        0.1442
     45 H          -3.6838    3.1070    2.0673 H       1  UNL1        0.1689
     46 H          -4.0884   -3.1223    4.7801 H       1  UNL1        0.0659
     47 H          -8.1614   -0.6465    3.5691 H       1  UNL1        0.0658
     48 H          -7.8622    3.0665    3.8010 H       1  UNL1        0.0658
     49 H          -6.1510   -0.1596    1.5990 H       1  UNL1        0.0658
     50 H          -5.5204   -0.4192   -0.3805 H       1  UNL1        0.0660
     51 H          -6.8594   -1.4741    0.1318 H       1  UNL1        0.0660
     52 H          -6.5293   -1.2328   -1.6005 H       1  UNL1        0.0660
     53 H         -10.8476    2.3468   -1.5877 H       1  UNL1        0.0660
     54 H         -10.2991    0.8830   -0.7365 H       1  UNL1        0.0660
     55 H         -11.0097    2.2325    0.1812 H       1  UNL1        0.0660
     56 H         -10.0800    5.5047    2.9833 H       1  UNL1        0.0660
     57 H          -9.7371    3.9865    3.8469 H       1  UNL1        0.0660
     58 H          -8.3977    5.0408    3.3342 H       1  UNL1        0.0660
     59 H          -7.4406   -4.9064    2.4268 H       1  UNL1        0.1166
     60 H          -8.2637   -5.5482    3.8826 H       1  UNL1        0.1166
     61 H          -2.8648   -2.0752    5.7667 H       1  UNL1        0.2102
     62 H          -1.9745    1.5281    4.2237 H       1  UNL1        0.0561
     63 H          -2.7044    2.7664    5.2736 H       1  UNL1        0.0561
     64 H          -0.9222    1.6108    6.3665 H       1  UNL1        0.2094
@<TRIPOS>BOND
     1     1     2    1
     2     1    39    1
     3     1    40    1
     4     1    41    1
     5     2     3    1
     6     2    42    1
     7     2    43    1
     8     3     4    1
     9     3    44    1
    10     4     5   am
    11     4    45    1
    12     5     6    2
    13     5     7    1
    14     7     8    1
    15     7    19    1
    16     7     9    1
    17     9    10    1
    18     9    11    1
    19     9    37    1
    20    11    12    1
    21    11    13    1
    22    11    36    1
    23    13    18   ar
    24    13    14   ar
    25    14    15   ar
    26    14    46    1
    27    15    35    1
    28    15    16   ar
    29    16    17   ar
    30    16    33    1
    31    17    18   ar
    32    17    47    1
    33    18    19    1
    34    19    20    1
    35    19    21    1
    36    21    26   ar
    37    21    22   ar
    38    22    23   ar
    39    22    48    1
    40    23    24   ar
    41    23    31    1
    42    24    25   ar
    43    24    29    1
    44    25    26   ar
    45    25    27    1
    46    26    49    1
    47    27    28    1
    48    28    50    1
    49    28    51    1
    50    28    52    1
    51    29    30    1
    52    30    53    1
    53    30    54    1
    54    30    55    1
    55    31    32    1
    56    32    56    1
    57    32    57    1
    58    32    58    1
    59    33    34    1
    60    34    35    1
    61    34    59    1
    62    34    60    1
    63    36    61    1
    64    37    38    1
    65    37    62    1
    66    37    63    1
    67    38    64    1
