@<TRIPOS>MOLECULE
ZINC03830538
 57 60 0 0 0
SMALL
GASTEIGER

@<TRIPOS>ATOM
      1 C           6.2737    6.4706    3.8333 C.3     1  UNL1       -0.0020
      2 C           6.6272    5.1586    3.1814 C.2     1  UNL1        0.1741
      3 O           7.1782    4.2955    3.8215 O.2     1  UNL1       -0.2934
      4 C           6.2940    4.9245    1.7349 C.3     1  UNL1        0.1759
      5 C           7.1245    3.7474    1.1641 C.3     1  UNL1       -0.0049
      6 C           6.1321    2.8543    0.3688 C.3     1  UNL1       -0.0450
      7 C           4.8943    3.7510    0.2254 C.3     1  UNL1       -0.0248
      8 H           5.1346    4.5215   -0.5387 H       1  UNL1        0.0313
      9 C           4.8339    4.4385    1.6037 C.3     1  UNL1        0.0182
     10 C           3.7979    5.5312    1.6469 C.3     1  UNL1       -0.0430
     11 C           2.6036    5.1968    0.7334 C.3     1  UNL1       -0.0482
     12 C           2.4400    3.6897    0.6273 C.3     1  UNL1       -0.0250
     13 H           2.4358    3.2610    1.6385 H       1  UNL1        0.0315
     14 C           3.6075    3.0980   -0.1681 C.3     1  UNL1       -0.0142
     15 H           3.4552    3.3361   -1.2392 H       1  UNL1        0.0349
     16 C           3.5666    1.6041   -0.0575 C.2     1  UNL1       -0.0617
     17 C           2.3770    0.9879   -0.0309 C.2     1  UNL1        0.0412
     18 C           1.1193    1.7352   -0.0178 C.2     1  UNL1       -0.0199
     19 C          -0.0550    1.0598   -0.0054 C.2     1  UNL1       -0.0141
     20 C          -1.2883    1.7153    0.1220 C.2     1  UNL1        0.1564
     21 O          -2.3147    1.0625    0.0961 O.2     1  UNL1       -0.2927
     22 C          -1.3664    3.2084    0.2923 C.3     1  UNL1        0.0107
     23 C          -0.0466    3.7424    0.8491 C.3     1  UNL1       -0.0363
     24 C           1.1228    3.2486   -0.0065 C.3     1  UNL1       -0.0018
     25 C           0.9858    3.7873   -1.4268 C.3     1  UNL1       -0.0552
     26 CL          2.3342   -0.7478   -0.0177 Cl      1  UNL1       -0.0836
     27 C           4.6125    3.4342    2.7396 C.3     1  UNL1       -0.0552
     28 O           6.4976    6.1225    0.9500 O.3     1  UNL1       -0.4500
     29 C           7.7480    6.6072    0.8910 C.2     1  UNL1        0.3049
     30 O           8.6216    6.1079    1.5598 O.2     1  UNL1       -0.2511
     31 C           8.0621    7.7740   -0.0095 C.3     1  UNL1        0.0333
     32 H           5.3930    6.3847    4.2991 H       1  UNL1        0.0307
     33 H           7.0437    6.7354    4.5579 H       1  UNL1        0.0307
     34 H           6.2080    7.2483    3.0724 H       1  UNL1        0.0307
     35 H           7.9009    4.1252    0.5001 H       1  UNL1        0.0308
     36 H           7.5720    3.1765    1.9769 H       1  UNL1        0.0308
     37 H           6.5434    2.6170   -0.6152 H       1  UNL1        0.0270
     38 H           5.9068    1.9410    0.9114 H       1  UNL1        0.0270
     39 H           4.2376    6.4826    1.3256 H       1  UNL1        0.0272
     40 H           3.4382    5.6598    2.6758 H       1  UNL1        0.0272
     41 H           2.7777    5.6267   -0.2556 H       1  UNL1        0.0269
     42 H           1.6967    5.6396    1.1537 H       1  UNL1        0.0269
     43 H           4.4730    1.0266   -0.0332 H       1  UNL1        0.0589
     44 H          -0.0418   -0.0189   -0.0687 H       1  UNL1        0.0656
     45 H          -2.0939    3.4323    0.9409 H       1  UNL1        0.0345
     46 H          -1.6005    3.6801   -0.6598 H       1  UNL1        0.0345
     47 H           0.0858    3.3959    1.8761 H       1  UNL1        0.0278
     48 H          -0.0648    4.8343    0.8413 H       1  UNL1        0.0278
     49 H           0.0491    3.4364   -1.8597 H       1  UNL1        0.0238
     50 H           0.9898    4.8771   -1.4040 H       1  UNL1        0.0238
     51 H           1.8207    3.4335   -2.0317 H       1  UNL1        0.0238
     52 H           3.6126    3.0081    2.6581 H       1  UNL1        0.0237
     53 H           5.3536    2.6378    2.6701 H       1  UNL1        0.0237
     54 H           4.7140    3.9421    3.6987 H       1  UNL1        0.0237
     55 H           7.9222    8.7050    0.5399 H       1  UNL1        0.0342
     56 H           9.0958    7.7037   -0.3480 H       1  UNL1        0.0342
     57 H           7.3955    7.7573   -0.8718 H       1  UNL1        0.0342
@<TRIPOS>BOND
     1     1     2    1
     2     1    32    1
     3     1    33    1
     4     1    34    1
     5     2     3    2
     6     2     4    1
     7     4     9    1
     8     4     5    1
     9     4    28    1
    10     5     6    1
    11     5    35    1
    12     5    36    1
    13     6     7    1
    14     6    37    1
    15     6    38    1
    16     7     8    1
    17     7    14    1
    18     7     9    1
    19     9    10    1
    20     9    27    1
    21    10    11    1
    22    10    39    1
    23    10    40    1
    24    11    12    1
    25    11    41    1
    26    11    42    1
    27    12    13    1
    28    12    24    1
    29    12    14    1
    30    14    15    1
    31    14    16    1
    32    16    17    2
    33    16    43    1
    34    17    18    1
    35    17    26    1
    36    18    24    1
    37    18    19    2
    38    19    20    1
    39    19    44    1
    40    20    21    2
    41    20    22    1
    42    22    23    1
    43    22    45    1
    44    22    46    1
    45    23    24    1
    46    23    47    1
    47    23    48    1
    48    24    25    1
    49    25    49    1
    50    25    50    1
    51    25    51    1
    52    27    52    1
    53    27    53    1
    54    27    54    1
    55    28    29    1
    56    29    30    2
    57    29    31    1
    58    31    55    1
    59    31    56    1
    60    31    57    1
