@<TRIPOS>MOLECULE
ZINC00001982
 37 37 0 0 0
SMALL
GASTEIGER

@<TRIPOS>ATOM
      1 C          -5.9000    7.9000    3.0072 C.3     1  UNL1       -0.0641
      2 C          -6.3526    6.6371    2.2715 C.3     1  UNL1       -0.0414
      3 C          -5.2453    5.5835    2.3383 C.3     1  UNL1        0.0203
      4 N          -5.6787    4.3743    1.6338 N.3     1  UNL1       -0.1766
      5 C          -6.4841    3.3689    2.3317 C.3     1  UNL1        0.0203
      6 C          -5.5615    2.4165    3.0950 C.3     1  UNL1       -0.0414
      7 C          -6.4026    1.3666    3.8238 C.3     1  UNL1       -0.0641
      8 S          -5.2583    4.1438    0.0488 S.O2    1  UNL1        0.0609
      9 O          -5.0071    5.4319   -0.4962 O.2     1  UNL1       -0.1528
     10 O          -6.2231    3.2582   -0.5027 O.2     1  UNL1       -0.1528
     11 C          -3.7205    3.2836    0.0374 C.ar    1  UNL1        0.1055
     12 C          -3.7054    1.9000    0.0299 C.ar    1  UNL1       -0.0347
     13 C          -2.5051    1.2203    0.0206 C.ar    1  UNL1       -0.0511
     14 C          -1.3036    1.9317    0.0187 C.ar    1  UNL1       -0.0026
     15 C          -1.3262    3.3277    0.0322 C.ar    1  UNL1       -0.0511
     16 C          -2.5336    3.9948    0.0357 C.ar    1  UNL1       -0.0347
     17 C          -0.0144    1.2105    0.0087 C.2     1  UNL1        0.0717
     18 O           0.0021   -0.0041    0.0020 O.co2   1  UNL1       -0.5446
     19 H          -6.6888    8.6507    2.9596 H       1  UNL1        0.0230
     20 H          -5.6909    7.6582    4.0492 H       1  UNL1        0.0230
     21 H          -4.9977    8.2908    2.5368 H       1  UNL1        0.0230
     22 H          -6.5617    6.8790    1.2294 H       1  UNL1        0.0275
     23 H          -7.2549    6.2463    2.7419 H       1  UNL1        0.0275
     24 H          -5.0362    5.3416    3.3803 H       1  UNL1        0.0444
     25 H          -4.3430    5.9743    1.8679 H       1  UNL1        0.0444
     26 H          -7.1556    3.8643    3.0330 H       1  UNL1        0.0444
     27 H          -7.0690    2.8042    1.6057 H       1  UNL1        0.0444
     28 H          -4.8900    1.9212    2.3937 H       1  UNL1        0.0275
     29 H          -4.9766    2.9813    3.8210 H       1  UNL1        0.0275
     30 H          -7.0741    1.8619    4.5251 H       1  UNL1        0.0230
     31 H          -6.9875    0.8019    3.0979 H       1  UNL1        0.0230
     32 H          -5.7454    0.6881    4.3676 H       1  UNL1        0.0230
     33 H          -4.6355    1.3511    0.0310 H       1  UNL1        0.0637
     34 H          -2.4947    0.1404    0.0143 H       1  UNL1        0.0625
     35 H          -0.4005    3.8840    0.0353 H       1  UNL1        0.0625
     36 H          -2.5525    5.0746    0.0412 H       1  UNL1        0.0637
     37 O           1.1429    1.8999    0.0013 O.co2   1  UNL1       -0.5446
@<TRIPOS>UNITY_ATOM_ATTR
37 1
charge -1
@<TRIPOS>BOND
     1     1     2    1
     2     1    19    1
     3     1    20    1
     4     1    21    1
     5     2     3    1
     6     2    22    1
     7     2    23    1
     8     3     4    1
     9     3    24    1
    10     3    25    1
    11     4     5    1
    12     4     8    1
    13     5     6    1
    14     5    26    1
    15     5    27    1
    16     6     7    1
    17     6    28    1
    18     6    29    1
    19     7    30    1
    20     7    31    1
    21     7    32    1
    22     8     9    2
    23     8    10    2
    24     8    11    1
    25    11    16   ar
    26    11    12   ar
    27    12    13   ar
    28    12    33    1
    29    13    14   ar
    30    13    34    1
    31    14    15   ar
    32    14    17    1
    33    15    16   ar
    34    15    35    1
    35    16    36    1
    36    17    18   ar
    37    17    37   ar
