@<TRIPOS>MOLECULE
ZINC08551995
 61 62 0 0 0
SMALL
GASTEIGER

@<TRIPOS>ATOM
      1 C           2.6167   -0.4015    2.3166 C.3     1  UNL1       -0.0653
      2 C           1.8952    0.7006    1.5384 C.3     1  UNL1       -0.0555
      3 C           0.3991    0.3860    1.4773 C.3     1  UNL1       -0.0454
      4 C          -0.3225    1.4881    0.6991 C.3     1  UNL1        0.0048
      5 H          -0.1499    2.4629    1.1551 H       1  UNL1        0.0354
      6 C          -1.8432    1.1882    0.5841 C.3     1  UNL1        0.0066
      7 C          -2.2483    1.9316   -0.7061 C.3     1  UNL1        0.0569
      8 H          -2.6712    2.9047   -0.4562 H       1  UNL1        0.0950
      9 C           0.1063    1.4880   -0.7895 C.3     1  UNL1       -0.0283
     10 C          -1.1850    1.5176   -2.8467 C.3     1  UNL1       -0.0423
     11 C          -3.2545    1.1141   -1.4744 C.2     1  UNL1        0.2616
     12 O          -2.9316    0.0465   -1.9508 O.2     1  UNL1       -0.2696
     13 N          -4.5132    1.5693   -1.6322 N.am    1  UNL1       -0.3039
     14 C          -5.4914    0.7745   -2.3791 C.3     1  UNL1        0.0679
     15 H          -4.9902    0.2564   -3.1966 H       1  UNL1        0.0539
     16 C          -6.5719    1.6974   -2.9463 C.3     1  UNL1        0.1081
     17 H          -7.0734    2.2153   -2.1289 H       1  UNL1        0.0642
     18 C          -5.9272    2.7236   -3.8818 C.3     1  UNL1        0.1114
     19 H          -6.6905    3.4066   -4.2547 H       1  UNL1        0.0647
     20 C          -5.2762    1.9914   -5.0592 C.3     1  UNL1        0.1125
     21 H          -4.4793    1.3452   -4.6911 H       1  UNL1        0.0647
     22 C          -6.3367    1.1438   -5.7686 C.3     1  UNL1        0.1188
     23 H          -5.8706    0.5764   -6.5741 H       1  UNL1        0.0655
     24 C          -6.9655    0.1786   -4.7602 C.3     1  UNL1        0.1327
     25 H          -6.2009   -0.4987   -4.3798 H       1  UNL1        0.0740
     26 O          -7.5254    0.9225   -3.6761 O.3     1  UNL1       -0.3557
     27 S          -8.2723   -0.7804   -5.5747 S.3     1  UNL1       -0.1305
     28 C          -8.8028   -1.9643   -4.3068 C.3     1  UNL1       -0.0156
     29 O          -7.3475    1.9975   -6.3086 O.3     1  UNL1       -0.3857
     30 O          -4.7336    2.9454   -5.9744 O.3     1  UNL1       -0.3865
     31 O          -4.9332    3.4618   -3.1684 O.3     1  UNL1       -0.3865
     32 C          -6.1358   -0.2509   -1.4442 C.3     1  UNL1        0.0520
     33 H          -6.7975   -0.9001   -2.0178 H       1  UNL1        0.0482
     34 C          -5.0443   -1.0932   -0.7809 C.3     1  UNL1       -0.0470
     35 CL         -7.0873    0.6069   -0.1755 Cl      1  UNL1       -0.1201
     36 H           2.4667   -1.3579    1.8157 H       1  UNL1        0.0230
     37 H           3.6825   -0.1774    2.3602 H       1  UNL1        0.0230
     38 H           2.2149   -0.4544    3.3285 H       1  UNL1        0.0230
     39 H           2.2969    0.7535    0.5265 H       1  UNL1        0.0263
     40 H           2.0452    1.6569    2.0394 H       1  UNL1        0.0263
     41 H          -0.0027    0.3330    2.4892 H       1  UNL1        0.0270
     42 H           0.2491   -0.5704    0.9763 H       1  UNL1        0.0270
     43 H          -2.3807    1.5879    1.4441 H       1  UNL1        0.0329
     44 H          -2.0181    0.1171    0.4828 H       1  UNL1        0.0329
     45 H           0.2657    0.4677   -1.1384 H       1  UNL1        0.0817
     46 H           1.0116    2.0799   -0.9237 H       1  UNL1        0.0817
     47 H          -1.2106    0.4311   -2.7631 H       1  UNL1        0.0778
     48 H          -2.1160    1.8698   -3.2908 H       1  UNL1        0.0778
     49 H          -0.3467    1.8138   -3.4772 H       1  UNL1        0.0778
     50 H          -4.7715    2.4231   -1.2512 H       1  UNL1        0.1493
     51 H          -7.9574   -2.5873   -4.0149 H       1  UNL1        0.0341
     52 H          -9.1728   -1.4228   -3.4362 H       1  UNL1        0.0341
     53 H          -9.5971   -2.5942   -4.7075 H       1  UNL1        0.0341
     54 H          -8.0531    1.5267   -6.7729 H       1  UNL1        0.2100
     55 H          -4.3050    2.5506   -6.7460 H       1  UNL1        0.2100
     56 H          -4.4828    4.1315   -3.7011 H       1  UNL1        0.2100
     57 H          -4.3826   -0.4441   -0.2074 H       1  UNL1        0.0244
     58 H          -5.5034   -1.8238   -0.1149 H       1  UNL1        0.0244
     59 H          -4.4691   -1.6118   -1.5479 H       1  UNL1        0.0244
     60 N          -1.0202    2.1217   -1.4988 N.4     1  UNL1        0.2420
     61 H          -0.8343    3.1262   -1.6022 H       1  UNL1        0.2039
@<TRIPOS>UNITY_ATOM_ATTR
60 1
charge 1
@<TRIPOS>BOND
     1     1     2    1
     2     1    36    1
     3     1    37    1
     4     1    38    1
     5     2     3    1
     6     2    39    1
     7     2    40    1
     8     3     4    1
     9     3    41    1
    10     3    42    1
    11     4     5    1
    12     4     9    1
    13     4     6    1
    14     6     7    1
    15     6    43    1
    16     6    44    1
    17     7     8    1
    18     7    11    1
    19     7    60    1
    20     9    45    1
    21     9    46    1
    22     9    60    1
    23    10    47    1
    24    10    48    1
    25    10    49    1
    26    10    60    1
    27    11    12    2
    28    11    13   am
    29    13    14    1
    30    13    50    1
    31    14    15    1
    32    14    16    1
    33    14    32    1
    34    16    17    1
    35    16    26    1
    36    16    18    1
    37    18    19    1
    38    18    20    1
    39    18    31    1
    40    20    21    1
    41    20    22    1
    42    20    30    1
    43    22    23    1
    44    22    24    1
    45    22    29    1
    46    24    25    1
    47    24    26    1
    48    24    27    1
    49    27    28    1
    50    28    51    1
    51    28    52    1
    52    28    53    1
    53    29    54    1
    54    30    55    1
    55    31    56    1
    56    32    33    1
    57    32    34    1
    58    32    35    1
    59    34    57    1
    60    34    58    1
    61    34    59    1
    62    60    61    1
