@<TRIPOS>MOLECULE
ZINC01569476
 46 48 0 0 0
SMALL
GASTEIGER

@<TRIPOS>ATOM
      1 C           2.0206    2.7247   -2.4463 C.3     1  UNL1       -0.0486
      2 C           1.1492    3.2962   -1.3261 C.3     1  UNL1        0.0366
      3 CA          1.4053    2.5697    0.0287 C.3     1  UNL1        0.0807
      4 HA          0.5864    2.7854    0.7150 H       1  UNL1        0.0576
      5 N           2.6630    3.0318    0.6156 N.am    1  UNL1       -0.2761
      6 C           2.9637    4.4704    0.4123 C.3     1  UNL1        0.1003
      7 H           3.0488    5.1072    1.2929 H       1  UNL1        0.0640
      8 S           1.7034    4.9882   -0.8270 S.3     1  UNL1       -0.1275
      9 CA          4.2774    4.0082   -0.2345 C.3     1  UNL1        0.1278
     10 HA          4.3379    4.2201   -1.3020 H       1  UNL1        0.0622
     11 C           3.8345    2.5946    0.0806 C.2     1  UNL1        0.2401
     12 O           4.3307    1.4998   -0.0813 O.2     1  UNL1       -0.2734
     13 N           5.4738    4.4272    0.4999 N.am    1  UNL1       -0.2969
     14 C           6.6500    4.5558   -0.1455 C.2     1  UNL1        0.2649
     15 O           6.7180    4.3248   -1.3341 O.2     1  UNL1       -0.2693
     16 C           7.8808    4.9868    0.6099 C.3     1  UNL1        0.0637
     17 C           8.9254    5.5145   -0.3756 C.3     1  UNL1        0.0018
     18 C           9.2961    4.4090   -1.3663 C.3     1  UNL1       -0.0472
     19 C           9.8717    3.2135   -0.6045 C.3     1  UNL1       -0.0526
     20 C           8.8270    2.6858    0.3810 C.3     1  UNL1       -0.0472
     21 C           8.4563    3.7913    1.3717 C.3     1  UNL1        0.0018
     22 C           1.4806    1.0833   -0.2078 C.2     1  UNL1        0.0635
     23 O           2.3848    0.4404    0.2708 O.co2   1  UNL1       -0.5478
     24 C          -0.3330    3.2771   -1.7051 C.3     1  UNL1       -0.0486
     25 H           1.7968    1.6659   -2.5765 H       1  UNL1        0.0244
     26 H           1.8137    3.2567   -3.3749 H       1  UNL1        0.0244
     27 H           3.0722    2.8444   -2.1856 H       1  UNL1        0.0244
     28 H           5.4195    4.6120    1.4506 H       1  UNL1        0.1497
     29 H           8.5153    6.3662   -0.9183 H       1  UNL1        0.0328
     30 H           9.8156    5.8262    0.1708 H       1  UNL1        0.0328
     31 H          10.0403    4.7849   -2.0684 H       1  UNL1        0.0267
     32 H           8.4059    4.0973   -1.9127 H       1  UNL1        0.0267
     33 H          10.7618    3.5252   -0.0581 H       1  UNL1        0.0265
     34 H          10.1357    2.4259   -1.3103 H       1  UNL1        0.0265
     35 H           9.2371    1.8341    0.9237 H       1  UNL1        0.0267
     36 H           7.9369    2.3741   -0.1654 H       1  UNL1        0.0267
     37 H           9.3465    4.1030    1.9181 H       1  UNL1        0.0328
     38 H           7.7121    3.4154    2.0738 H       1  UNL1        0.0328
     39 H           7.1421    6.8495    1.0822 H       1  UNL1        0.2004
     40 H           6.8847    5.7060    2.2619 H       1  UNL1        0.2004
     41 H          -0.9126    3.7796   -0.9308 H       1  UNL1        0.0244
     42 H          -0.4718    3.7930   -2.6552 H       1  UNL1        0.0244
     43 H          -0.6706    2.2450   -1.7995 H       1  UNL1        0.0244
     44 N           7.5477    6.0531    1.5709 N.4     1  UNL1        0.2296
     45 H           8.4041    6.3550    2.0503 H       1  UNL1        0.2004
     46 OXT         0.5431    0.4735   -0.9502 O.co2   1  UNL1       -0.5478
@<TRIPOS>UNITY_ATOM_ATTR
44 1
charge 1
46 1
charge -1
@<TRIPOS>BOND
     1     1     2    1
     2     1    25    1
     3     1    26    1
     4     1    27    1
     5     2     8    1
     6     2     3    1
     7     2    24    1
     8     3     4    1
     9     3     5    1
    10     3    22    1
    11     5    11   am
    12     5     6    1
    13     6     7    1
    14     6     8    1
    15     6     9    1
    16     9    10    1
    17     9    11    1
    18     9    13    1
    19    11    12    2
    20    13    14   am
    21    13    28    1
    22    14    15    2
    23    14    16    1
    24    16    21    1
    25    16    17    1
    26    16    44    1
    27    17    18    1
    28    17    29    1
    29    17    30    1
    30    18    19    1
    31    18    31    1
    32    18    32    1
    33    19    20    1
    34    19    33    1
    35    19    34    1
    36    20    21    1
    37    20    35    1
    38    20    36    1
    39    21    37    1
    40    21    38    1
    41    22    23   ar
    42    22    46   ar
    43    24    41    1
    44    24    42    1
    45    24    43    1
    46    39    44    1
    47    40    44    1
    48    44    45    1
