@<TRIPOS>MOLECULE
ZINC02036915
 50 52 0 0 0
SMALL
GASTEIGER

@<TRIPOS>ATOM
      1 C           2.4720    1.4175   -0.0082 C.ar    0  UNK0       -0.0479
      2 C           3.6525    2.1245   -0.0215 C.ar    0  UNK0       -0.0401
      3 C           3.6319    3.5166   -0.0143 C.ar    0  UNK0        0.0275
      4 C           2.4178    4.1976    0.0015 C.ar    0  UNK0       -0.0401
      5 C           1.2339    3.4963    0.0091 C.ar    0  UNK0       -0.0479
      6 C           1.2512    2.0985    0.0014 C.ar    0  UNK0        0.0368
      7 C          -0.0162    1.3436    0.0094 C.2     0  UNK0        0.2446
      8 O          -1.0774    1.9372    0.0177 O.2     0  UNK0       -0.2702
      9 N           0.0021   -0.0041    0.0020 N.am    1  GLU1       -0.3034
     10 CA         -1.2565   -0.7538    0.0100 C.3     1  GLU1        0.0632
     11 HA         -2.0051   -0.2133   -0.5694 H       1  GLU1        0.0560
     12 CB         -1.0316   -2.1346   -0.6092 C.3     1  GLU1       -0.0241
     13 CG         -0.6634   -1.9775   -2.0859 C.3     1  GLU1       -0.0112
     14 CD         -0.4418   -3.3377   -2.6958 C.2     1  GLU1        0.0418
     15 OE1        -0.5657   -4.3308   -2.0189 O.co2   1  GLU1       -0.5498
     16 C          -1.7380   -0.9120    1.4292 C.2     1  GLU1        0.0620
     17 O          -1.0956   -0.4464    2.3405 O.co2   1  GLU1       -0.5479
     18 N           4.8265    4.2281   -0.0224 N.pl3   0  UNK0       -0.3382
     19 C           6.1050    3.5130   -0.0390 C.3     0  UNK0        0.0530
     20 C           7.2370    4.5077   -0.0449 C.ar    0  UNK0        0.0772
     21 C           7.8373    4.8777    1.1581 C.ar    0  UNK0        0.0528
     22 N           8.8278    5.7442    1.1783 N.ar    0  UNK0       -0.2324
     23 C           9.2622    6.2748    0.0325 C.ar    0  UNK0        0.1851
     24 C           8.6485    5.8953   -1.1873 C.ar    0  UNK0        0.1477
     25 N           7.6529    5.0147   -1.1860 N.ar    0  UNK0       -0.2419
     26 C           9.1522    6.4984   -2.4224 C.ar    0  UNK0        0.1491
     27 N          10.1521    7.3634   -2.3227 N.ar    0  UNK0       -0.1978
     28 C          10.6808    7.6740   -1.1432 C.ar    0  UNK0        0.2163
     29 N          10.2656    7.1604   -0.0024 N.ar    0  UNK0       -0.1932
     30 N          11.7209    8.5831   -1.1115 N.pl3   0  UNK0       -0.3274
     31 N           8.6059    6.1787   -3.6460 N.pl3   0  UNK0       -0.3413
     32 H           2.4886    0.3376   -0.0096 H       0  UNK0        0.0626
     33 H           4.5960    1.5990   -0.0334 H       0  UNK0        0.0636
     34 H           2.4051    5.2775    0.0074 H       0  UNK0        0.0636
     35 H           0.2923    4.0252    0.0206 H       0  UNK0        0.0626
     36 H           0.8486   -0.4776   -0.0086 H       1  GLU1        0.1496
     37 HB1        -0.2211   -2.6405   -0.0845 H       1  GLU1        0.0290
     38 HB2        -1.9441   -2.7245   -0.5230 H       1  GLU1        0.0290
     39 HG1        -1.4739   -1.4717   -2.6106 H       1  GLU1        0.0325
     40 HG2         0.2491   -1.3877   -2.1721 H       1  GLU1        0.0325
     41 H           4.8133    5.1980   -0.0170 H       0  UNK0        0.1465
     42 H           6.1801    2.8824    0.8469 H       0  UNK0        0.0527
     43 H           6.1623    2.8919   -0.9329 H       0  UNK0        0.0527
     44 H           7.4851    4.4483    2.0844 H       0  UNK0        0.0849
     45 H          12.1256    8.8277   -0.2645 H       0  UNK0        0.1452
     46 H          12.0464    8.9767   -1.9361 H       0  UNK0        0.1452
     47 H           8.9524    6.5886   -4.4539 H       0  UNK0        0.1438
     48 H           7.8746    5.5436   -3.6996 H       0  UNK0        0.1438
     49 OE2        -0.1069   -3.4459   -3.9912 O.co2   1  GLU1       -0.5498
     50 OXT        -2.8803   -1.5703    1.6810 O.co2   1  GLU1       -0.5479
@<TRIPOS>UNITY_ATOM_ATTR
49 1
charge -1
50 1
charge -1
@<TRIPOS>BOND
     1     1     6   ar
     2     1     2   ar
     3     1    32    1
     4     2     3   ar
     5     2    33    1
     6     3     4   ar
     7     3    18    1
     8     4     5   ar
     9     4    34    1
    10     5     6   ar
    11     5    35    1
    12     6     7    1
    13     7     8    2
    14     7     9   am
    15     9    10    1
    16     9    36    1
    17    10    11    1
    18    10    12    1
    19    10    16    1
    20    12    13    1
    21    12    37    1
    22    12    38    1
    23    13    14    1
    24    13    39    1
    25    13    40    1
    26    14    15   ar
    27    14    49   ar
    28    16    17   ar
    29    16    50   ar
    30    18    19    1
    31    18    41    1
    32    19    20    1
    33    19    42    1
    34    19    43    1
    35    20    25   ar
    36    20    21   ar
    37    21    22   ar
    38    21    44    1
    39    22    23   ar
    40    23    29   ar
    41    23    24   ar
    42    24    25   ar
    43    24    26   ar
    44    26    27   ar
    45    26    31    1
    46    27    28   ar
    47    28    29   ar
    48    28    30    1
    49    30    45    1
    50    30    46    1
    51    31    47    1
    52    31    48    1
