@<TRIPOS>MOLECULE
ZINC05632014
 47 49 0 0 0
SMALL
GASTEIGER

@<TRIPOS>ATOM
      1 C          -2.1346   -4.3837    0.2210 C.3     1  UNL1        0.0332
      2 C          -2.2560   -2.8817    0.2135 C.2     1  UNL1        0.3043
      3 O          -3.3476   -2.3639    0.1942 O.2     1  UNL1       -0.2512
      4 O          -1.1516   -2.1190    0.2282 O.3     1  UNL1       -0.4603
      5 C          -1.3395   -0.6844    0.1060 C.3     1  UNL1        0.1164
      6 C           0.0041   -0.0074    0.0191 C.2     1  UNL1        0.0004
      7 CA         -0.0175    1.3167    0.0087 C.2     1  UNL1        0.0631
      8 N           1.1814    2.0460   -0.0162 N.am    1  UNL1       -0.2533
      9 C           2.5224    1.5345   -0.4502 C.3     1  UNL1        0.1041
     10 H           2.7139    1.5021   -1.5228 H       1  UNL1        0.0644
     11 CA          3.0844    2.7474    0.2837 C.3     1  UNL1        0.1285
     12 HA          3.7236    3.3766   -0.3356 H       1  UNL1        0.0622
     13 C           1.6506    3.2411    0.3797 C.2     1  UNL1        0.2438
     14 O           1.1351    4.2942    0.6901 O.2     1  UNL1       -0.2731
     15 N           3.6859    2.4244    1.5799 N.am    1  UNL1       -0.2968
     16 C           4.6339    3.2277    2.1018 C.2     1  UNL1        0.2665
     17 O           4.9891    4.2180    1.4984 O.2     1  UNL1       -0.2692
     18 CA          5.2526    2.8955    3.4352 C.3     1  UNL1        0.0789
     19 HA          5.4164    1.8199    3.5018 H       1  UNL1        0.1002
     20 C           4.3270    3.3322    4.5413 C.ar    1  UNL1        0.0091
     21 C           4.2939    4.6578    4.9318 C.ar    1  UNL1       -0.0528
     22 C           3.4419    5.0591    5.9438 C.ar    1  UNL1       -0.0613
     23 C           2.6294    4.1332    6.5711 C.ar    1  UNL1       -0.0617
     24 C           2.6660    2.8067    6.1838 C.ar    1  UNL1       -0.0613
     25 C           3.5152    2.4061    5.1692 C.ar    1  UNL1       -0.0528
     26 S           2.7293   -0.0628    0.4069 S.3     1  UNL1       -0.1310
     27 C           1.1875   -0.9171   -0.0447 C.3     1  UNL1        0.0219
     28 C          -1.3082    2.0286    0.0173 C.2     1  UNL1        0.0860
     29 O          -1.3335    3.2394    0.1156 O.co2   1  UNL1       -0.5433
     30 H          -1.6873   -4.7074    1.1608 H       1  UNL1        0.0342
     31 H          -3.1242   -4.8288    0.1173 H       1  UNL1        0.0342
     32 H          -1.5045   -4.7015   -0.6097 H       1  UNL1        0.0342
     33 H          -1.8778   -0.3128    0.9779 H       1  UNL1        0.0746
     34 H          -1.9140   -0.4686   -0.7948 H       1  UNL1        0.0746
     35 H           3.4018    1.6324    2.0625 H       1  UNL1        0.1497
     36 H           4.9314    5.3805    4.4443 H       1  UNL1        0.0622
     37 H           3.4136    6.0954    6.2467 H       1  UNL1        0.0618
     38 H           1.9663    4.4461    7.3640 H       1  UNL1        0.0618
     39 H           2.0315    2.0833    6.6741 H       1  UNL1        0.0618
     40 H           3.5440    1.3697    4.8668 H       1  UNL1        0.0622
     41 H1          6.4123    4.5949    3.5083 H       1  UNL1        0.2005
     42 H2          7.0027    3.3389    4.4246 H       1  UNL1        0.2005
     43 H           1.0308   -1.7509    0.6397 H       1  UNL1        0.0424
     44 H           1.2815   -1.3058   -1.0587 H       1  UNL1        0.0424
     45 N           6.5494    3.5863    3.5465 N.4     1  UNL1        0.2307
     46 H3          7.1523    3.3003    2.7661 H       1  UNL1        0.2005
     47 OXT        -2.4602    1.3365   -0.0838 O.co2   1  UNL1       -0.5433
@<TRIPOS>UNITY_ATOM_ATTR
45 1
charge 1
47 1
charge -1
@<TRIPOS>BOND
     1     1     2    1
     2     1    30    1
     3     1    31    1
     4     1    32    1
     5     2     3    2
     6     2     4    1
     7     4     5    1
     8     5     6    1
     9     5    33    1
    10     5    34    1
    11     6    27    1
    12     6     7    2
    13     7     8    1
    14     7    28    1
    15     8    13   am
    16     8     9    1
    17     9    10    1
    18     9    11    1
    19     9    26    1
    20    11    12    1
    21    11    13    1
    22    11    15    1
    23    13    14    2
    24    15    16   am
    25    15    35    1
    26    16    17    2
    27    16    18    1
    28    18    19    1
    29    18    20    1
    30    18    45    1
    31    20    25   ar
    32    20    21   ar
    33    21    22   ar
    34    21    36    1
    35    22    23   ar
    36    22    37    1
    37    23    24   ar
    38    23    38    1
    39    24    25   ar
    40    24    39    1
    41    25    40    1
    42    26    27    1
    43    27    43    1
    44    27    44    1
    45    28    29   ar
    46    28    47   ar
    47    41    45    1
    48    42    45    1
    49    45    46    1
