@<TRIPOS>MOLECULE
ZINC11592930
 68 72 0 0 0
SMALL
GASTEIGER

@<TRIPOS>ATOM
      1 C           7.4646   -5.2503    3.1508 C.3     1  UNL1       -0.0359
      2 C           7.2670   -3.8316    2.6129 C.3     1  UNL1        0.0900
      3 H           7.5752   -3.7928    1.5681 H       1  UNL1        0.0622
      4 C           8.1130   -2.8528    3.4315 C.3     1  UNL1        0.1234
      5 H           9.1684   -3.1003    3.3179 H       1  UNL1        0.0676
      6 C           7.8640   -1.4285    2.9261 C.3     1  UNL1        0.0093
      7 H           8.1898   -1.3473    1.8891 H       1  UNL1        0.0878
      8 C           6.3663   -1.1203    3.0181 C.3     1  UNL1        0.0439
      9 C           5.5878   -2.1660    2.2155 C.3     1  UNL1        0.1655
     10 H           4.5188   -1.9767    2.3124 H       1  UNL1        0.0912
     11 O           5.8882   -3.4701    2.7168 O.3     1  UNL1       -0.3454
     12 O           5.9631   -2.0865    0.8390 O.3     1  UNL1       -0.3431
     13 C           5.0484   -2.7297   -0.0509 C.3     1  UNL1        0.0934
     14 H           5.4467   -2.6899   -1.0647 H       1  UNL1        0.0649
     15 C           4.8816   -4.1888    0.3673 C.3     1  UNL1        0.0140
     16 C           3.7426   -4.7995   -0.4581 C.3     1  UNL1        0.1300
     17 C           2.4274   -4.1770    0.0051 C.3     1  UNL1        0.0122
     18 C           2.5239   -2.6729    0.0108 C.ar    1  UNL1        0.0070
     19 C           3.7250   -2.0097   -0.0085 C.ar    1  UNL1        0.0302
     20 C           3.7541   -0.6088    0.0060 C.ar    1  UNL1        0.1345
     21 C           2.5695    0.1239    0.0391 C.ar    1  UNL1        0.0784
     22 C           1.3357   -0.5573    0.0565 C.ar    1  UNL1        0.0782
     23 C           1.3237   -1.9508    0.0413 C.ar    1  UNL1        0.1322
     24 O           0.1405   -2.6133    0.0566 O.3     1  UNL1       -0.5057
     25 C           0.0741    0.2021    0.0910 C.2     1  UNL1        0.1982
     26 O          -0.9904   -0.3852    0.1051 O.2     1  UNL1       -0.2865
     27 C           0.1050    1.6795    0.1088 C.ar    1  UNL1        0.0367
     28 C          -1.0811    2.4052    0.1492 C.ar    1  UNL1       -0.0500
     29 C          -1.0470    3.7899    0.1595 C.ar    1  UNL1       -0.0576
     30 C           0.1583    4.4620    0.1412 C.ar    1  UNL1       -0.0192
     31 C           1.3568    3.7561    0.1068 C.ar    1  UNL1        0.1316
     32 C           1.3377    2.3580    0.0908 C.ar    1  UNL1        0.0748
     33 C           2.5998    1.5971    0.0547 C.2     1  UNL1        0.2016
     34 O           3.6646    2.1844    0.0395 O.2     1  UNL1       -0.2864
     35 O           2.5384    4.4211    0.0883 O.3     1  UNL1       -0.4944
     36 C           2.4797    5.8487    0.1064 C.3     1  UNL1        0.0788
     37 O           4.9453    0.0392   -0.0118 O.3     1  UNL1       -0.5057
     38 C           3.7030   -6.2906   -0.2437 C.2     1  UNL1        0.1620
     39 O           4.0659   -6.7592    0.8084 O.2     1  UNL1       -0.2946
     40 C           3.2105   -7.1969   -1.3424 C.3     1  UNL1       -0.0032
     41 O           3.9473   -4.5174   -1.8439 O.3     1  UNL1       -0.3806
     42 O           7.7461   -2.9414    4.8098 O.3     1  UNL1       -0.3836
     43 H           7.2378   -5.2696    4.2168 H       1  UNL1        0.0255
     44 H           6.7983   -5.9342    2.6251 H       1  UNL1        0.0255
     45 H           8.4985   -5.5577    2.9937 H       1  UNL1        0.0255
     46 H           6.1726   -0.1288    2.6089 H       1  UNL1        0.0370
     47 H           6.0512   -1.1529    4.0611 H       1  UNL1        0.0370
     48 H           5.8063   -4.7336    0.1767 H       1  UNL1        0.0326
     49 H           4.6357   -4.2412    1.4279 H       1  UNL1        0.0326
     50 H           1.6280   -4.4830   -0.6697 H       1  UNL1        0.0347
     51 H           2.2002   -4.5256    1.0125 H       1  UNL1        0.0347
     52 H          -0.2196   -2.7957   -0.8221 H       1  UNL1        0.2922
     53 H          -2.0293    1.8886    0.1677 H       1  UNL1        0.0625
     54 H          -1.9711    4.3482    0.1869 H       1  UNL1        0.0619
     55 H           0.1712    5.5419    0.1534 H       1  UNL1        0.0654
     56 H           3.4913    6.2542    0.0887 H       1  UNL1        0.0660
     57 H           1.9317    6.2009   -0.7676 H       1  UNL1        0.0660
     58 H           1.9712    6.1801    1.0118 H       1  UNL1        0.0660
     59 H           5.2718    0.2862    0.8643 H       1  UNL1        0.2922
     60 H           3.9800   -7.4688   -1.9202 H       1  UNL1        0.0307
     61 H           2.7539   -8.0843   -0.9040 H       1  UNL1        0.0307
     62 H           2.4721   -6.6687   -1.9456 H       1  UNL1        0.0307
     63 H           3.2614   -4.8759   -2.4237 H       1  UNL1        0.2108
     64 H           8.4594    0.4728    3.4447 H       1  UNL1        0.1998
     65 H           8.3772   -0.5794    4.7300 H       1  UNL1        0.1998
     66 H           7.8779   -3.8180    5.1963 H       1  UNL1        0.2102
     67 N           8.6373   -0.4826    3.7498 N.4     1  UNL1        0.2228
     68 H           9.6385   -0.6861    3.6473 H       1  UNL1        0.1998
@<TRIPOS>UNITY_ATOM_ATTR
67 1
charge 1
@<TRIPOS>BOND
     1     1     2    1
     2     1    43    1
     3     1    44    1
     4     1    45    1
     5     2     3    1
     6     2    11    1
     7     2     4    1
     8     4     5    1
     9     4     6    1
    10     4    42    1
    11     6     7    1
    12     6     8    1
    13     6    67    1
    14     8     9    1
    15     8    46    1
    16     8    47    1
    17     9    10    1
    18     9    11    1
    19     9    12    1
    20    12    13    1
    21    13    14    1
    22    13    19    1
    23    13    15    1
    24    15    16    1
    25    15    48    1
    26    15    49    1
    27    16    17    1
    28    16    38    1
    29    16    41    1
    30    17    18    1
    31    17    50    1
    32    17    51    1
    33    18    23   ar
    34    18    19   ar
    35    19    20   ar
    36    20    21   ar
    37    20    37    1
    38    21    33    1
    39    21    22   ar
    40    22    23   ar
    41    22    25    1
    42    23    24    1
    43    24    52    1
    44    25    26    2
    45    25    27    1
    46    27    32   ar
    47    27    28   ar
    48    28    29   ar
    49    28    53    1
    50    29    30   ar
    51    29    54    1
    52    30    31   ar
    53    30    55    1
    54    31    32   ar
    55    31    35    1
    56    32    33    1
    57    33    34    2
    58    35    36    1
    59    36    56    1
    60    36    57    1
    61    36    58    1
    62    37    59    1
    63    38    39    2
    64    38    40    1
    65    40    60    1
    66    40    61    1
    67    40    62    1
    68    41    63    1
    69    42    66    1
    70    64    67    1
    71    65    67    1
    72    67    68    1
