@<TRIPOS>MOLECULE
ZINC15848213
 73 76 0 0 0
SMALL
GASTEIGER

@<TRIPOS>ATOM
      1 C           5.0752    0.0663    1.4563 C.3     1  UNL1       -0.0583
      2 C           3.9484    0.6159    0.5793 C.3     1  UNL1        0.0042
      3 H           4.3446    0.9221   -0.3889 H       1  UNL1        0.0341
      4 C           2.8484   -0.4446    0.3786 C.3     1  UNL1       -0.0426
      5 C           1.8118   -0.1053    1.4657 C.3     1  UNL1       -0.0253
      6 H           2.1845   -0.4403    2.4337 H       1  UNL1        0.0311
      7 C           0.4672   -0.7389    1.2033 C.3     1  UNL1        0.0003
      8 H          -0.1844   -0.5298    2.0516 H       1  UNL1        0.0336
      9 C           0.6093   -2.2591    1.0469 C.3     1  UNL1       -0.0432
     10 C          -0.7866   -2.8721    1.1745 C.3     1  UNL1       -0.0301
     11 C          -1.7578   -2.1562    0.2826 C.2     1  UNL1       -0.0532
     12 C          -2.9671   -2.7229    0.0635 C.2     1  UNL1       -0.0148
     13 C          -3.8861   -1.9185   -0.7879 C.2     1  UNL1        0.1787
     14 O          -4.5824   -2.4162   -1.6528 O.2     1  UNL1       -0.2879
     15 C          -3.8868   -0.4573   -0.4994 C.2     1  UNL1       -0.0180
     16 C          -2.6672    0.0805   -0.2769 C.2     1  UNL1       -0.0674
     17 C          -1.4913   -0.8484   -0.3632 C.3     1  UNL1        0.0443
     18 C          -0.1769   -0.1875   -0.0635 C.3     1  UNL1        0.1526
     19 C          -0.3412    1.3274    0.0941 C.3     1  UNL1        0.0910
     20 H          -0.8520    1.7340   -0.7787 H       1  UNL1        0.0626
     21 C           1.0464    1.9529    0.2154 C.3     1  UNL1       -0.0141
     22 C           1.7776    1.4335    1.4407 C.3     1  UNL1        0.0208
     23 C           3.2737    1.8124    1.2756 C.3     1  UNL1        0.1822
     24 C           3.9005    2.0463    2.6259 C.2     1  UNL1        0.2144
     25 O           3.8261    1.1972    3.4814 O.2     1  UNL1       -0.2895
     26 C           4.6203    3.3398    2.9087 C.3     1  UNL1        0.1542
     27 O           5.0175    3.3774    4.3048 O.3     1  UNL1       -0.4570
     28 C           5.6744    4.4711    4.7222 C.2     1  UNL1        0.3043
     29 O           5.9096    5.3672    3.9467 O.2     1  UNL1       -0.2512
     30 C           6.1184    4.5812    6.1581 C.3     1  UNL1        0.0332
     31 O           3.3988    3.0030    0.4540 O.3     1  UNL1       -0.4492
     32 C           4.6402    3.3720    0.1008 C.2     1  UNL1        0.3106
     33 O           5.5824    2.6703    0.3832 O.2     1  UNL1       -0.2505
     34 C           4.8587    4.6616   -0.6478 C.3     1  UNL1        0.0509
     35 C           6.3522    4.8432   -0.9257 C.3     1  UNL1       -0.0525
     36 C           4.0950    4.6177   -1.9729 C.3     1  UNL1       -0.0525
     37 C           1.1847    2.0071    2.7292 C.3     1  UNL1       -0.0551
     38 O          -1.1006    1.6091    1.2714 O.3     1  UNL1       -0.3886
     39 F           0.6895   -0.4253   -1.1358 F       1  UNL1       -0.2377
     40 C          -1.4260   -1.1807   -1.8552 C.3     1  UNL1       -0.0493
     41 H           4.6654   -0.2599    2.4122 H       1  UNL1        0.0234
     42 H           5.5460   -0.7795    0.9552 H       1  UNL1        0.0234
     43 H           5.8169    0.8467    1.6263 H       1  UNL1        0.0234
     44 H           3.2575   -1.4425    0.5362 H       1  UNL1        0.0272
     45 H           2.4048   -0.3627   -0.6137 H       1  UNL1        0.0272
     46 H           1.0273   -2.4924    0.0676 H       1  UNL1        0.0272
     47 H           1.2592   -2.6518    1.8289 H       1  UNL1        0.0272
     48 H          -0.7455   -3.9239    0.8915 H       1  UNL1        0.0310
     49 H          -1.1231   -2.7900    2.2080 H       1  UNL1        0.0310
     50 H          -3.2436   -3.6830    0.4736 H       1  UNL1        0.0656
     51 H          -4.7938    0.1282   -0.4698 H       1  UNL1        0.0653
     52 H          -2.5452    1.1267   -0.0380 H       1  UNL1        0.0583
     53 H           1.6297    1.7050   -0.6714 H       1  UNL1        0.0298
     54 H           0.9460    3.0360    0.2858 H       1  UNL1        0.0298
     55 H           5.4328    3.4027    2.3291 H       1  UNL1        0.0780
     56 H           3.9570    4.1784    2.6970 H       1  UNL1        0.0780
     57 H           7.1197    4.1631    6.2619 H       1  UNL1        0.0342
     58 H           6.1298    5.6297    6.4555 H       1  UNL1        0.0342
     59 H           5.4268    4.0302    6.7956 H       1  UNL1        0.0342
     60 H           4.4967    5.4961   -0.0474 H       1  UNL1        0.0408
     61 H           6.7142    4.0087   -1.5262 H       1  UNL1        0.0237
     62 H           6.5102    5.7759   -1.4672 H       1  UNL1        0.0237
     63 H           6.8962    4.8745    0.0183 H       1  UNL1        0.0237
     64 H           4.4570    3.7831   -2.5734 H       1  UNL1        0.0237
     65 H           3.0310    4.4882   -1.7750 H       1  UNL1        0.0237
     66 H           4.2531    5.5504   -2.5144 H       1  UNL1        0.0237
     67 H           1.8490    1.7862    3.5647 H       1  UNL1        0.0237
     68 H           1.0737    3.0868    2.6289 H       1  UNL1        0.0237
     69 H           0.2089    1.5570    2.9120 H       1  UNL1        0.0237
     70 H          -1.2423    2.5522    1.4317 H       1  UNL1        0.2099
     71 H          -0.5848   -1.8481   -2.0423 H       1  UNL1        0.0242
     72 H          -2.3518   -1.6688   -2.1596 H       1  UNL1        0.0242
     73 H          -1.2949   -0.2618   -2.4267 H       1  UNL1        0.0242
@<TRIPOS>BOND
     1     1     2    1
     2     1    41    1
     3     1    42    1
     4     1    43    1
     5     2     3    1
     6     2    23    1
     7     2     4    1
     8     4     5    1
     9     4    44    1
    10     4    45    1
    11     5     6    1
    12     5    22    1
    13     5     7    1
    14     7     8    1
    15     7    18    1
    16     7     9    1
    17     9    10    1
    18     9    46    1
    19     9    47    1
    20    10    11    1
    21    10    48    1
    22    10    49    1
    23    11    17    1
    24    11    12    2
    25    12    13    1
    26    12    50    1
    27    13    14    2
    28    13    15    1
    29    15    16    2
    30    15    51    1
    31    16    17    1
    32    16    52    1
    33    17    18    1
    34    17    40    1
    35    18    19    1
    36    18    39    1
    37    19    20    1
    38    19    21    1
    39    19    38    1
    40    21    22    1
    41    21    53    1
    42    21    54    1
    43    22    23    1
    44    22    37    1
    45    23    24    1
    46    23    31    1
    47    24    25    2
    48    24    26    1
    49    26    27    1
    50    26    55    1
    51    26    56    1
    52    27    28    1
    53    28    29    2
    54    28    30    1
    55    30    57    1
    56    30    58    1
    57    30    59    1
    58    31    32    1
    59    32    33    2
    60    32    34    1
    61    34    35    1
    62    34    36    1
    63    34    60    1
    64    35    61    1
    65    35    62    1
    66    35    63    1
    67    36    64    1
    68    36    65    1
    69    36    66    1
    70    37    67    1
    71    37    68    1
    72    37    69    1
    73    38    70    1
    74    40    71    1
    75    40    72    1
    76    40    73    1
