@<TRIPOS>MOLECULE
ZINC03831460
 80 83 0 0 0
SMALL
GASTEIGER

@<TRIPOS>ATOM
      1 C          -7.6158    4.5811   -0.8338 C.3     1  UNL1       -0.0650
      2 C          -7.5791    3.2780   -1.6347 C.3     1  UNL1       -0.0528
      3 C          -8.3567    3.4595   -2.9398 C.3     1  UNL1       -0.0389
      4 H          -9.3654    3.8072   -2.7164 H       1  UNL1        0.0303
      5 C          -7.6449    4.4901   -3.8185 C.3     1  UNL1       -0.0497
      6 C          -6.2556    3.9693   -4.1919 C.3     1  UNL1       -0.0499
      7 C          -5.5566    4.9851   -5.0978 C.3     1  UNL1       -0.0405
      8 H          -5.2769    5.8613   -4.5130 H       1  UNL1        0.0301
      9 C          -6.5062    5.4041   -6.2219 C.3     1  UNL1       -0.0621
     10 C          -4.3064    4.3546   -5.6977 C.3     1  UNL1       -0.0328
     11 H          -3.7698    5.0684   -6.3194 H       1  UNL1        0.0309
     12 C          -4.6910    3.1017   -6.5283 C.3     1  UNL1       -0.0492
     13 C          -4.3258    1.8681   -5.6610 C.3     1  UNL1       -0.0492
     14 C          -4.0599    2.4672   -4.2711 C.3     1  UNL1       -0.0320
     15 H          -5.0465    2.6890   -3.8116 H       1  UNL1        0.0309
     16 C          -3.3598    3.7951   -4.6187 C.3     1  UNL1       -0.0259
     17 C          -3.1401    4.6566   -3.4055 C.3     1  UNL1       -0.0468
     18 C          -2.9277    3.7954   -2.1473 C.3     1  UNL1       -0.0486
     19 C          -2.2855    2.4658   -2.5138 C.3     1  UNL1       -0.0285
     20 H          -1.3950    2.6474   -3.1207 H       1  UNL1        0.0312
     21 C          -3.2876    1.6180   -3.3106 C.3     1  UNL1       -0.0307
     22 H          -3.9998    1.1711   -2.5875 H       1  UNL1        0.0309
     23 C          -2.5008    0.4743   -3.9518 C.3     1  UNL1       -0.0311
     24 C          -1.8689   -0.3023   -2.8227 C.2     1  UNL1       -0.0839
     25 C          -1.5900    0.2203   -1.6683 C.2     1  UNL1       -0.0648
     26 C          -1.8183    1.6694   -1.3065 C.3     1  UNL1       -0.0078
     27 C          -2.7994    1.7318   -0.1432 C.3     1  UNL1       -0.0413
     28 C          -3.0875    0.3236    0.3774 C.3     1  UNL1       -0.0258
     29 C          -1.8058   -0.4404    0.6929 C.3     1  UNL1        0.0590
     30 H          -2.0667   -1.4137    1.1198 H       1  UNL1        0.0596
     31 C          -0.9868   -0.6585   -0.5856 C.3     1  UNL1       -0.0051
     32 O          -1.0304    0.2875    1.6470 O.3     1  UNL1       -0.3915
     33 C          -0.4814    2.2635   -0.8477 C.3     1  UNL1       -0.0556
     34 C          -2.0175    3.5523   -5.3330 C.3     1  UNL1       -0.0590
     35 C          -8.4304    2.1224   -3.6798 C.3     1  UNL1       -0.0439
     36 C          -9.1422    1.0918   -2.8011 C.3     1  UNL1       -0.0624
     37 C          -9.2080    2.3039   -4.9849 C.3     1  UNL1       -0.0624
     38 H          -7.2264    5.3948   -1.4456 H       1  UNL1        0.0230
     39 H          -8.6438    4.8022   -0.5466 H       1  UNL1        0.0230
     40 H          -7.0033    4.4746    0.0616 H       1  UNL1        0.0230
     41 H          -8.0334    2.4787   -1.0492 H       1  UNL1        0.0265
     42 H          -6.5446    3.0197   -1.8611 H       1  UNL1        0.0265
     43 H          -7.5466    5.4278   -3.2716 H       1  UNL1        0.0268
     44 H          -8.2260    4.6576   -4.7254 H       1  UNL1        0.0268
     45 H          -6.3528    3.0197   -4.7181 H       1  UNL1        0.0268
     46 H          -5.6665    3.8243   -3.2863 H       1  UNL1        0.0268
     47 H          -7.3293    5.9843   -5.8049 H       1  UNL1        0.0233
     48 H          -5.9647    6.0111   -6.9475 H       1  UNL1        0.0233
     49 H          -6.9010    4.5153   -6.7142 H       1  UNL1        0.0233
     50 H          -4.1296    3.0867   -7.4613 H       1  UNL1        0.0268
     51 H          -5.7611    3.1104   -6.7352 H       1  UNL1        0.0268
     52 H          -3.4477    1.3602   -6.0510 H       1  UNL1        0.0268
     53 H          -5.1700    1.1748   -5.6160 H       1  UNL1        0.0268
     54 H          -2.2396    5.2753   -3.5591 H       1  UNL1        0.0271
     55 H          -3.9689    5.3422   -3.2228 H       1  UNL1        0.0271
     56 H          -2.2915    4.3386   -1.4455 H       1  UNL1        0.0268
     57 H          -3.8971    3.6175   -1.6728 H       1  UNL1        0.0268
     58 H          -1.7234    0.8603   -4.6031 H       1  UNL1        0.0310
     59 H          -3.1729   -0.1780   -4.5053 H       1  UNL1        0.0310
     60 H          -1.6399   -1.3417   -2.9880 H       1  UNL1        0.0572
     61 H          -2.3732    2.3335    0.6606 H       1  UNL1        0.0274
     62 H          -3.7336    2.1871   -0.4722 H       1  UNL1        0.0274
     63 H          -3.6878    0.4013    1.2872 H       1  UNL1        0.0290
     64 H          -3.6603   -0.2243   -0.3712 H       1  UNL1        0.0290
     65 H          -1.0544   -1.7085   -0.8879 H       1  UNL1        0.0335
     66 H           0.0572   -0.4021   -0.4173 H       1  UNL1        0.0335
     67 H          -0.2116   -0.1555    1.9086 H       1  UNL1        0.2098
     68 H           0.2459    2.1888   -1.6561 H       1  UNL1        0.0238
     69 H          -0.6218    3.3109   -0.5808 H       1  UNL1        0.0238
     70 H          -0.1180    1.7130    0.0201 H       1  UNL1        0.0238
     71 H          -2.2021    3.1166   -6.3149 H       1  UNL1        0.0235
     72 H          -1.4912    4.4997   -5.4489 H       1  UNL1        0.0235
     73 H          -1.4092    2.8688   -4.7407 H       1  UNL1        0.0235
     74 H          -7.4218    1.7747   -3.9031 H       1  UNL1        0.0298
     75 H         -10.1508    1.4394   -2.5777 H       1  UNL1        0.0232
     76 H          -9.1947    0.1392   -3.3282 H       1  UNL1        0.0232
     77 H          -8.5882    0.9625   -1.8713 H       1  UNL1        0.0232
     78 H          -8.7009    3.0381   -5.6109 H       1  UNL1        0.0232
     79 H          -9.2605    1.3513   -5.5120 H       1  UNL1        0.0232
     80 H         -10.2166    2.6515   -4.7615 H       1  UNL1        0.0232
@<TRIPOS>BOND
     1     1     2    1
     2     1    38    1
     3     1    39    1
     4     1    40    1
     5     2     3    1
     6     2    41    1
     7     2    42    1
     8     3     4    1
     9     3     5    1
    10     3    35    1
    11     5     6    1
    12     5    43    1
    13     5    44    1
    14     6     7    1
    15     6    45    1
    16     6    46    1
    17     7     8    1
    18     7     9    1
    19     7    10    1
    20     9    47    1
    21     9    48    1
    22     9    49    1
    23    10    11    1
    24    10    16    1
    25    10    12    1
    26    12    13    1
    27    12    50    1
    28    12    51    1
    29    13    14    1
    30    13    52    1
    31    13    53    1
    32    14    15    1
    33    14    21    1
    34    14    16    1
    35    16    17    1
    36    16    34    1
    37    17    18    1
    38    17    54    1
    39    17    55    1
    40    18    19    1
    41    18    56    1
    42    18    57    1
    43    19    20    1
    44    19    26    1
    45    19    21    1
    46    21    22    1
    47    21    23    1
    48    23    24    1
    49    23    58    1
    50    23    59    1
    51    24    25    2
    52    24    60    1
    53    25    31    1
    54    25    26    1
    55    26    27    1
    56    26    33    1
    57    27    28    1
    58    27    61    1
    59    27    62    1
    60    28    29    1
    61    28    63    1
    62    28    64    1
    63    29    30    1
    64    29    31    1
    65    29    32    1
    66    31    65    1
    67    31    66    1
    68    32    67    1
    69    33    68    1
    70    33    69    1
    71    33    70    1
    72    34    71    1
    73    34    72    1
    74    34    73    1
    75    35    36    1
    76    35    37    1
    77    35    74    1
    78    36    75    1
    79    36    76    1
    80    36    77    1
    81    37    78    1
    82    37    79    1
    83    37    80    1
