@<TRIPOS>MOLECULE
ZINC01482035
 49 51 0 0 0
SMALL
GASTEIGER

@<TRIPOS>ATOM
      1 C          -1.9393    2.0509   -1.3866 C.3     1  UNL1       -0.0516
      2 C          -1.3379    2.0955    0.0196 C.3     1  UNL1        0.0186
      3 C          -0.0167    1.3806    0.0096 C.ar    1  UNL1       -0.0160
      4 C           0.0021   -0.0041    0.0020 C.ar    1  UNL1       -0.0560
      5 C           1.2039   -0.6850   -0.0183 C.ar    1  UNL1       -0.0614
      6 C           2.3983    0.0119   -0.0310 C.ar    1  UNL1       -0.0600
      7 C           2.3893    1.3925   -0.0206 C.ar    1  UNL1       -0.0401
      8 C           1.1811    2.0796    0.0019 C.ar    1  UNL1        0.0380
      9 N           1.1825    3.4758    0.0224 N.pl3   1  UNL1       -0.2994
     10 C           0.0381    4.1658    0.4272 C.ar    1  UNL1        0.0380
     11 C          -1.1938    3.5290    0.4449 C.ar    1  UNL1       -0.0160
     12 C          -2.3165    4.2276    0.8562 C.ar    1  UNL1       -0.0560
     13 C          -2.2123    5.5501    1.2417 C.ar    1  UNL1       -0.0614
     14 C          -0.9849    6.1868    1.2192 C.ar    1  UNL1       -0.0600
     15 C           0.1404    5.4971    0.8137 C.ar    1  UNL1       -0.0401
     16 C           2.3819    4.2148   -0.3794 C.3     1  UNL1        0.0221
     17 C           2.3299    4.4925   -1.8831 C.3     1  UNL1        0.0036
     18 C           3.5825    5.2644   -2.3028 C.3     1  UNL1       -0.0309
     19 C           2.4315    6.4464   -4.0751 C.3     1  UNL1       -0.0433
     20 C           4.8163    6.0570   -4.2295 C.3     1  UNL1       -0.0433
     21 C          -2.2839    1.3811    0.9869 C.3     1  UNL1       -0.0516
     22 H          -2.0852    1.0132   -1.6866 H       1  UNL1        0.0241
     23 H          -2.8988    2.5679   -1.3879 H       1  UNL1        0.0241
     24 H          -1.2621    2.5399   -2.0870 H       1  UNL1        0.0241
     25 H          -0.9272   -0.5542    0.0124 H       1  UNL1        0.0621
     26 H           1.2107   -1.7650   -0.0246 H       1  UNL1        0.0618
     27 H           3.3364   -0.5228   -0.0494 H       1  UNL1        0.0618
     28 H           3.3210    1.9386   -0.0303 H       1  UNL1        0.0636
     29 H          -3.2781    3.7363    0.8755 H       1  UNL1        0.0621
     30 H          -3.0923    6.0886    1.5612 H       1  UNL1        0.0618
     31 H          -0.9065    7.2214    1.5189 H       1  UNL1        0.0618
     32 H           1.1001    5.9922    0.7964 H       1  UNL1        0.0636
     33 H           2.4256    5.1592    0.1631 H       1  UNL1        0.0470
     34 H           3.2676    3.6225   -0.1498 H       1  UNL1        0.0470
     35 H           2.2862    3.5482   -2.4257 H       1  UNL1        0.0332
     36 H           1.4441    5.0849   -2.1128 H       1  UNL1        0.0332
     37 H           3.6262    6.2087   -1.7602 H       1  UNL1        0.0815
     38 H           4.4682    4.6721   -2.0732 H       1  UNL1        0.0815
     39 H           2.5752    7.3907   -3.5500 H       1  UNL1        0.0777
     40 H           2.4175    6.6268   -5.1500 H       1  UNL1        0.0777
     41 H           1.4850    6.0008   -3.7690 H       1  UNL1        0.0777
     42 H           5.6035    5.3284   -4.0356 H       1  UNL1        0.0777
     43 H           4.7517    6.2457   -5.3011 H       1  UNL1        0.0777
     44 H           5.0464    6.9872   -3.7100 H       1  UNL1        0.0777
     45 H          -1.8539    1.3898    1.9885 H       1  UNL1        0.0241
     46 H          -3.2455    1.8941    0.9999 H       1  UNL1        0.0241
     47 H          -2.4261    0.3506    0.6615 H       1  UNL1        0.0241
     48 N           3.5276    5.5061   -3.7600 N.4     1  UNL1        0.2309
     49 H           3.3511    4.6155   -4.2394 H       1  UNL1        0.2028
@<TRIPOS>UNITY_ATOM_ATTR
48 1
charge 1
@<TRIPOS>BOND
     1     1     2    1
     2     1    22    1
     3     1    23    1
     4     1    24    1
     5     2    11    1
     6     2     3    1
     7     2    21    1
     8     3     8   ar
     9     3     4   ar
    10     4     5   ar
    11     4    25    1
    12     5     6   ar
    13     5    26    1
    14     6     7   ar
    15     6    27    1
    16     7     8   ar
    17     7    28    1
    18     8     9    1
    19     9    10    1
    20     9    16    1
    21    10    15   ar
    22    10    11   ar
    23    11    12   ar
    24    12    13   ar
    25    12    29    1
    26    13    14   ar
    27    13    30    1
    28    14    15   ar
    29    14    31    1
    30    15    32    1
    31    16    17    1
    32    16    33    1
    33    16    34    1
    34    17    18    1
    35    17    35    1
    36    17    36    1
    37    18    37    1
    38    18    38    1
    39    18    48    1
    40    19    39    1
    41    19    40    1
    42    19    41    1
    43    19    48    1
    44    20    42    1
    45    20    43    1
    46    20    44    1
    47    20    48    1
    48    21    45    1
    49    21    46    1
    50    21    47    1
    51    48    49    1
