@<TRIPOS>MOLECULE
ZINC01734034
 50 51 0 0 0
SMALL
GASTEIGER

@<TRIPOS>ATOM
      1 C           1.2741   -2.5875   -6.4135 C.3     1  UNL1       -0.0245
      2 C           1.2602   -2.5806   -4.8836 C.3     1  UNL1       -0.0347
      3 C           3.3943   -1.4392   -4.8086 C.3     1  UNL1       -0.0347
      4 C           4.1234   -2.5438   -4.0410 C.3     1  UNL1       -0.0245
      5 C           1.3382   -0.1610   -4.8391 C.3     1  UNL1        0.0032
      6 C          -0.0388   -0.0400   -4.1833 C.3     1  UNL1        0.1321
      7 O           0.1201    0.1050   -2.7473 O.3     1  UNL1       -0.4568
      8 C          -1.0012    0.2239   -2.0191 C.2     1  UNL1        0.3487
      9 O          -2.0797    0.2074   -2.5634 O.2     1  UNL1       -0.2468
     10 C          -0.9148    0.3781   -0.5224 C.3     1  UNL1        0.2133
     11 C          -0.7093    1.8307   -0.1781 C.ar    1  UNL1       -0.0008
     12 C          -1.3302    2.8130   -0.9267 C.ar    1  UNL1       -0.0550
     13 C          -1.1456    4.1454   -0.6078 C.ar    1  UNL1       -0.0614
     14 C          -0.3321    4.4957    0.4535 C.ar    1  UNL1       -0.0617
     15 C           0.2933    3.5136    1.1986 C.ar    1  UNL1       -0.0614
     16 C           0.1045    2.1811    0.8830 C.ar    1  UNL1       -0.0550
     17 C          -2.1932   -0.1116    0.1076 C.ar    1  UNL1       -0.0008
     18 C          -2.9112    0.7178    0.9487 C.ar    1  UNL1       -0.0550
     19 C          -4.0864    0.2703    1.5228 C.ar    1  UNL1       -0.0614
     20 C          -4.5384   -1.0101    1.2637 C.ar    1  UNL1       -0.0617
     21 C          -3.8175   -1.8415    0.4270 C.ar    1  UNL1       -0.0614
     22 C          -2.6450   -1.3922   -0.1512 C.ar    1  UNL1       -0.0550
     23 O           0.1845   -0.3890   -0.0273 O.3     1  UNL1       -0.3698
     24 H           0.8779   -1.6423   -6.7847 H       1  UNL1        0.0281
     25 H           2.2971   -2.7164   -6.7670 H       1  UNL1        0.0281
     26 H           0.6572   -3.4085   -6.7787 H       1  UNL1        0.0281
     27 H           1.7422   -3.4847   -4.5118 H       1  UNL1        0.0812
     28 H           0.2298   -2.5464   -4.5297 H       1  UNL1        0.0812
     29 H           3.4519   -1.6413   -5.8782 H       1  UNL1        0.0812
     30 H           3.8623   -0.4783   -4.5946 H       1  UNL1        0.0812
     31 H           3.9767   -2.3999   -2.9705 H       1  UNL1        0.0281
     32 H           3.7248   -3.5147   -4.3351 H       1  UNL1        0.0281
     33 H           5.1883   -2.5036   -4.2704 H       1  UNL1        0.0281
     34 H           1.2240   -0.1805   -5.9230 H       1  UNL1        0.0848
     35 H           1.9528    0.6929   -4.5539 H       1  UNL1        0.0848
     36 H          -0.6224   -0.9358   -4.3956 H       1  UNL1        0.0752
     37 H          -0.5555    0.8332   -4.5817 H       1  UNL1        0.0752
     38 H          -1.9625    2.5394   -1.7585 H       1  UNL1        0.0621
     39 H          -1.6340    4.9127   -1.1902 H       1  UNL1        0.0618
     40 H          -0.1849    5.5368    0.7003 H       1  UNL1        0.0618
     41 H           0.9291    3.7874    2.0276 H       1  UNL1        0.0618
     42 H           0.5931    1.4138    1.4651 H       1  UNL1        0.0621
     43 H          -2.5559    1.7168    1.1544 H       1  UNL1        0.0621
     44 H          -4.6494    0.9198    2.1767 H       1  UNL1        0.0618
     45 H          -5.4546   -1.3610    1.7151 H       1  UNL1        0.0618
     46 H          -4.1705   -2.8419    0.2249 H       1  UNL1        0.0618
     47 H          -2.0818   -2.0417   -0.8048 H       1  UNL1        0.0621
     48 H           0.1191   -1.3356   -0.2133 H       1  UNL1        0.2117
     49 N           1.9852   -1.4020   -4.3639 N.4     1  UNL1        0.2372
     50 H           1.9588   -1.4200   -3.3376 H       1  UNL1        0.2034
@<TRIPOS>UNITY_ATOM_ATTR
49 1
charge 1
@<TRIPOS>BOND
     1     1     2    1
     2     1    24    1
     3     1    25    1
     4     1    26    1
     5     2    27    1
     6     2    28    1
     7     2    49    1
     8     3     4    1
     9     3    29    1
    10     3    30    1
    11     3    49    1
    12     4    31    1
    13     4    32    1
    14     4    33    1
    15     5     6    1
    16     5    34    1
    17     5    35    1
    18     5    49    1
    19     6     7    1
    20     6    36    1
    21     6    37    1
    22     7     8    1
    23     8     9    2
    24     8    10    1
    25    10    11    1
    26    10    17    1
    27    10    23    1
    28    11    16   ar
    29    11    12   ar
    30    12    13   ar
    31    12    38    1
    32    13    14   ar
    33    13    39    1
    34    14    15   ar
    35    14    40    1
    36    15    16   ar
    37    15    41    1
    38    16    42    1
    39    17    22   ar
    40    17    18   ar
    41    18    19   ar
    42    18    43    1
    43    19    20   ar
    44    19    44    1
    45    20    21   ar
    46    20    45    1
    47    21    22   ar
    48    21    46    1
    49    22    47    1
    50    23    48    1
    51    49    50    1
