@<TRIPOS>MOLECULE
ZINC00074838
 28 28 0 0 0
SMALL
GASTEIGER

@<TRIPOS>ATOM
      1 C          -1.4029    2.8778   -0.7364 C.3     1  UNL1       -0.0189
      2 C          -0.7955    1.5269   -1.1198 C.3     1  UNL1        0.0050
      3 H          -0.1462    1.6532   -1.9862 H       1  UNL1        0.0877
      4 C          -1.9159    0.5425   -1.4612 C.3     1  UNL1        0.1222
      5 H          -2.4418    0.8854   -2.3522 H       1  UNL1        0.0701
      6 C          -1.3260   -0.8201   -1.7193 C.ar    1  UNL1       -0.0138
      7 C          -1.0705   -1.6741   -0.6628 C.ar    1  UNL1       -0.0559
      8 C          -0.5335   -2.9256   -0.9000 C.ar    1  UNL1       -0.0614
      9 C          -0.2431   -3.3194   -2.1928 C.ar    1  UNL1       -0.0617
     10 C          -0.4941   -2.4635   -3.2489 C.ar    1  UNL1       -0.0614
     11 C          -1.0351   -1.2137   -3.0122 C.ar    1  UNL1       -0.0559
     12 O          -2.8320    0.4654   -0.3673 O.3     1  UNL1       -0.3816
     13 C           1.3525    1.5499   -0.0025 C.3     1  UNL1       -0.0445
     14 H          -0.6047    3.5792   -0.4932 H       1  UNL1        0.0285
     15 H          -1.9845    3.2652   -1.5729 H       1  UNL1        0.0285
     16 H          -2.0521    2.7516    0.1300 H       1  UNL1        0.0285
     17 H          -1.2936   -1.3648    0.3476 H       1  UNL1        0.0621
     18 H          -0.3377   -3.5944   -0.0749 H       1  UNL1        0.0618
     19 H           0.1796   -4.2959   -2.3778 H       1  UNL1        0.0618
     20 H          -0.2672   -2.7712   -4.2590 H       1  UNL1        0.0618
     21 H          -1.2309   -0.5449   -3.8372 H       1  UNL1        0.0621
     22 H          -2.4318    0.1663    0.4606 H       1  UNL1        0.2105
     23 H           1.9110    1.1471    0.8425 H       1  UNL1        0.0777
     24 H           1.8485    1.2706   -0.9321 H       1  UNL1        0.0777
     25 H           1.3102    2.6363    0.0746 H       1  UNL1        0.0777
     26 N          -0.0153    0.9979    0.0149 N.4     1  UNL1        0.2289
     27 H           0.0315   -0.0254   -0.0540 H       1  UNL1        0.2014
     28 H          -0.4755    1.2610    0.8943 H       1  UNL1        0.2014
@<TRIPOS>UNITY_ATOM_ATTR
26 1
charge 1
@<TRIPOS>BOND
     1     1     2    1
     2     1    14    1
     3     1    15    1
     4     1    16    1
     5     2     3    1
     6     2     4    1
     7     2    26    1
     8     4     5    1
     9     4     6    1
    10     4    12    1
    11     6    11   ar
    12     6     7   ar
    13     7     8   ar
    14     7    17    1
    15     8     9   ar
    16     8    18    1
    17     9    10   ar
    18     9    19    1
    19    10    11   ar
    20    10    20    1
    21    11    21    1
    22    12    22    1
    23    13    23    1
    24    13    24    1
    25    13    25    1
    26    13    26    1
    27    26    27    1
    28    26    28    1
