@<TRIPOS>MOLECULE
ZINC01530867
 23 25 0 0 0
SMALL
GASTEIGER

@<TRIPOS>ATOM
      1 C           0.2462    2.4668   -0.7710 C.3     1  UNL1        0.0185
      2 C           1.1090    2.2997    0.4814 C.3     1  UNL1        0.0185
      3 N          -0.1923    1.6302    0.3540 N.3     1  UNL1       -0.2514
      4 P           0.0021   -0.0041    0.0020 P.3     1  UNL1        0.1283
      5 S           0.9645   -0.8242    1.3709 S.2     1  UNL1       -0.0169
      6 N          -1.5091   -0.7320   -0.1353 N.3     1  UNL1       -0.2514
      7 C          -2.5700    0.2766   -0.2593 C.3     1  UNL1        0.0185
      8 C          -2.3298   -0.4698    1.0546 C.3     1  UNL1        0.0185
      9 N           0.8385   -0.1698   -1.4490 N.3     1  UNL1       -0.2514
     10 C          -0.0641   -0.5798   -2.5331 C.3     1  UNL1        0.0185
     11 C           0.8888   -1.5763   -1.8700 C.3     1  UNL1        0.0185
     12 H           0.5715    1.9613   -1.6803 H       1  UNL1        0.0443
     13 H          -0.2556    3.4236   -0.9152 H       1  UNL1        0.0443
     14 H           1.1775    3.1460    1.1648 H       1  UNL1        0.0443
     15 H           2.0046    1.6832    0.4031 H       1  UNL1        0.0443
     16 H          -2.2693    1.3232   -0.3085 H       1  UNL1        0.0443
     17 H          -3.4551    0.0109   -0.8372 H       1  UNL1        0.0443
     18 H          -3.0563   -1.2287    1.3450 H       1  UNL1        0.0443
     19 H          -1.8694    0.0807    1.8750 H       1  UNL1        0.0443
     20 H          -1.1259   -0.6651   -2.3019 H       1  UNL1        0.0443
     21 H           0.1750   -0.2470   -3.5431 H       1  UNL1        0.0443
     22 H           1.7577   -1.9020   -2.4418 H       1  UNL1        0.0443
     23 H           0.4599   -2.3205   -1.1990 H       1  UNL1        0.0443
@<TRIPOS>BOND
     1     1     3    1
     2     1     2    1
     3     1    12    1
     4     1    13    1
     5     2     3    1
     6     2    14    1
     7     2    15    1
     8     3     4    1
     9     4     5    2
    10     4     6    1
    11     4     9    1
    12     6     8    1
    13     6     7    1
    14     7     8    1
    15     7    16    1
    16     7    17    1
    17     8    18    1
    18     8    19    1
    19     9    11    1
    20     9    10    1
    21    10    11    1
    22    10    20    1
    23    10    21    1
    24    11    22    1
    25    11    23    1
