@<TRIPOS>MOLECULE
ZINC04658562
 11 10 0 0 0
SMALL
GASTEIGER

@<TRIPOS>ATOM
      1 C          -1.4832    2.7279   -1.2835 C.3     1  UNL1       -0.0336
      2 C          -1.3295    1.9397    0.0189 C.3     1  UNL1        0.0915
      3 H          -1.3548    2.6270    0.8646 H       1  UNL1        0.0652
      4 C          -0.0143    1.2041    0.0087 C.2     1  UNL1        0.0699
      5 O           0.0021   -0.0041    0.0020 O.co2   1  UNL1       -0.5472
      6 O          -2.3999    1.0003    0.1363 O.3     1  UNL1       -0.3863
      7 H          -2.4344    3.2600   -1.2761 H       1  UNL1        0.0258
      8 H          -0.6667    3.4444   -1.3730 H       1  UNL1        0.0258
      9 H          -1.4578    2.0406   -2.1292 H       1  UNL1        0.0258
     10 H          -3.2783    1.4045    0.1493 H       1  UNL1        0.2103
     11 O           1.1389    1.8910    0.0013 O.co2   1  UNL1       -0.5472
@<TRIPOS>UNITY_ATOM_ATTR
11 1
charge -1
@<TRIPOS>BOND
     1     1     2    1
     2     1     7    1
     3     1     8    1
     4     1     9    1
     5     2     3    1
     6     2     4    1
     7     2     6    1
     8     4     5   ar
     9     4    11   ar
    10     6    10    1
