@<TRIPOS>MOLECULE
ZINC11330186
 66 67 0 0 0
SMALL
GASTEIGER

@<TRIPOS>ATOM
      1 C           2.2192    2.9083    3.0181 C.3     1  UNL1       -0.0572
      2 C           1.4341    1.7083    2.4847 C.3     1  UNL1       -0.0039
      3 C           1.6494    0.5070    3.4074 C.3     1  UNL1       -0.0572
      4 C          -0.0331    2.0488    2.4374 C.ar    1  UNL1        0.0501
      5 C          -0.7286    1.8862    1.2563 C.ar    1  UNL1        0.0079
      6 C          -2.0866    2.2082    1.2167 C.ar    1  UNL1       -0.0019
      7 C          -2.6913    2.6797    2.4003 C.ar    1  UNL1        0.0044
      8 C          -1.9089    2.8106    3.5463 C.ar    1  UNL1        0.0519
      9 N          -0.6297    2.4966    3.5262 N.ar    1  UNL1       -0.2550
     10 C          -2.5325    3.3169    4.8213 C.3     1  UNL1       -0.0037
     11 C          -2.3901    2.2564    5.9149 C.3     1  UNL1       -0.0572
     12 C          -1.8251    4.6005    5.2604 C.3     1  UNL1       -0.0572
     13 C          -4.1248    3.0319    2.4240 C.2     1  UNL1       -0.0538
     14 C          -4.9109    2.5492    3.3776 C.2     1  UNL1       -0.0552
     15 C          -6.3742    2.9087    3.4018 C.3     1  UNL1        0.0760
     16 H          -6.5899    3.4935    4.2959 H       1  UNL1        0.0638
     17 C          -7.2135    1.6295    3.4141 C.3     1  UNL1        0.0032
     18 C          -8.6925    1.9914    3.5642 C.3     1  UNL1        0.0629
     19 H          -8.8272    2.6083    4.4527 H       1  UNL1        0.0598
     20 C          -9.5193    0.7114    3.7018 C.3     1  UNL1        0.0130
     21 C         -10.9579    1.0693    3.9723 C.2     1  UNL1        0.0442
     22 O         -11.2881    2.2292    4.0473 O.co2   1  UNL1       -0.5497
     23 O          -9.1249    2.7162    2.4111 O.3     1  UNL1       -0.3913
     24 O          -6.6949    3.6777    2.2408 O.3     1  UNL1       -0.3877
     25 C          -2.8704    2.0549   -0.0312 C.ar    1  UNL1       -0.0167
     26 C          -2.5762    2.8434   -1.1433 C.ar    1  UNL1       -0.0513
     27 C          -3.3056    2.6937   -2.3044 C.ar    1  UNL1       -0.0259
     28 C          -4.3362    1.7691   -2.3636 C.ar    1  UNL1        0.1234
     29 C          -4.6356    0.9871   -1.2594 C.ar    1  UNL1       -0.0259
     30 C          -3.9084    1.1258   -0.0956 C.ar    1  UNL1       -0.0513
     31 F          -5.0509    1.6294   -3.5015 F       1  UNL1       -0.2055
     32 C          -0.0296    1.3735    0.0236 C.3     1  UNL1        0.0746
     33 O           0.6184    2.4589   -0.6427 O.3     1  UNL1       -0.3783
     34 C           1.3149    2.0788   -1.8311 C.3     1  UNL1        0.0369
     35 H           1.8707    3.1536    4.0213 H       1  UNL1        0.0236
     36 H           3.2805    2.6620    3.0523 H       1  UNL1        0.0236
     37 H           2.0658    3.7641    2.3607 H       1  UNL1        0.0236
     38 H           1.7827    1.4629    1.4815 H       1  UNL1        0.0359
     39 H           1.0901   -0.3479    3.0274 H       1  UNL1        0.0236
     40 H           2.7107    0.2607    3.4416 H       1  UNL1        0.0236
     41 H           1.3009    0.7524    4.4106 H       1  UNL1        0.0236
     42 H          -3.5891    3.5242    4.6516 H       1  UNL1        0.0359
     43 H          -2.8941    1.3420    5.6021 H       1  UNL1        0.0236
     44 H          -1.3336    2.0491    6.0846 H       1  UNL1        0.0236
     45 H          -2.8412    2.6226    6.8372 H       1  UNL1        0.0236
     46 H          -1.9265    5.3560    4.4813 H       1  UNL1        0.0236
     47 H          -2.2762    4.9667    6.1827 H       1  UNL1        0.0236
     48 H          -0.7685    4.3932    5.4301 H       1  UNL1        0.0236
     49 H          -4.5336    3.6825    1.6650 H       1  UNL1        0.0622
     50 H          -4.5021    1.8986    4.1366 H       1  UNL1        0.0598
     51 H          -7.0649    1.0884    2.4797 H       1  UNL1        0.0318
     52 H          -6.9064    1.0016    4.2504 H       1  UNL1        0.0318
     53 H          -9.4554    0.1365    2.7780 H       1  UNL1        0.0350
     54 H          -9.1316    0.1155    4.5281 H       1  UNL1        0.0350
     55 H          -9.0336    2.2270    1.5820 H       1  UNL1        0.2098
     56 H          -6.5276    3.2186    1.4063 H       1  UNL1        0.2102
     57 H          -1.7762    3.5673   -1.0966 H       1  UNL1        0.0624
     58 H          -3.0759    3.3010   -3.1675 H       1  UNL1        0.0646
     59 H          -5.4399    0.2681   -1.3101 H       1  UNL1        0.0646
     60 H          -4.1427    0.5161    0.7645 H       1  UNL1        0.0624
     61 H          -0.7603    0.9202   -0.6463 H       1  UNL1        0.0610
     62 H           0.7122    0.6281    0.3101 H       1  UNL1        0.0610
     63 H           2.0847    1.3480   -1.5831 H       1  UNL1        0.0524
     64 H           0.6122    1.6401   -2.5395 H       1  UNL1        0.0524
     65 H           1.7792    2.9583   -2.2772 H       1  UNL1        0.0524
     66 O         -11.8726    0.0996    4.1299 O.co2   1  UNL1       -0.5497
@<TRIPOS>UNITY_ATOM_ATTR
66 1
charge -1
@<TRIPOS>BOND
     1     1     2    1
     2     1    35    1
     3     1    36    1
     4     1    37    1
     5     2     3    1
     6     2     4    1
     7     2    38    1
     8     3    39    1
     9     3    40    1
    10     3    41    1
    11     4     9   ar
    12     4     5   ar
    13     5     6   ar
    14     5    32    1
    15     6     7   ar
    16     6    25    1
    17     7     8   ar
    18     7    13    1
    19     8     9   ar
    20     8    10    1
    21    10    11    1
    22    10    12    1
    23    10    42    1
    24    11    43    1
    25    11    44    1
    26    11    45    1
    27    12    46    1
    28    12    47    1
    29    12    48    1
    30    13    14    2
    31    13    49    1
    32    14    15    1
    33    14    50    1
    34    15    16    1
    35    15    17    1
    36    15    24    1
    37    17    18    1
    38    17    51    1
    39    17    52    1
    40    18    19    1
    41    18    20    1
    42    18    23    1
    43    20    21    1
    44    20    53    1
    45    20    54    1
    46    21    22   ar
    47    21    66   ar
    48    23    55    1
    49    24    56    1
    50    25    30   ar
    51    25    26   ar
    52    26    27   ar
    53    26    57    1
    54    27    28   ar
    55    27    58    1
    56    28    29   ar
    57    28    31    1
    58    29    30   ar
    59    29    59    1
    60    30    60    1
    61    32    33    1
    62    32    61    1
    63    32    62    1
    64    33    34    1
    65    34    63    1
    66    34    64    1
    67    34    65    1
