@<TRIPOS>MOLECULE
ZINC08101075
 73 75 0 0 0
SMALL
GASTEIGER

@<TRIPOS>ATOM
      1 C          -3.2869    3.1336    3.6198 C.3     1  UNL1       -0.0162
      2 C          -3.8362    3.5960    2.2667 C.3     1  UNL1       -0.0025
      3 C          -4.8065    2.5375    1.7333 C.3     1  UNL1        0.0279
      4 H          -5.6544    2.4455    2.4121 H       1  UNL1        0.0900
      5 C          -4.0803    1.1932    1.6368 C.3     1  UNL1        0.2034
      6 H          -4.7775    0.4269    1.2981 H       1  UNL1        0.0969
      7 O          -3.5677    0.8369    2.9223 O.3     1  UNL1       -0.3378
      8 C          -2.6194    1.7663    3.4504 C.3     1  UNL1        0.1015
      9 H          -1.7770    1.8555    2.7644 H       1  UNL1        0.0651
     10 C          -2.1206    1.2702    4.8091 C.3     1  UNL1       -0.0084
     11 O          -3.0010    1.3004    0.7064 O.3     1  UNL1       -0.3348
     12 C          -2.6762    0.0737    0.0492 C.3     1  UNL1        0.1326
     13 H          -3.4385   -0.6721    0.2746 H       1  UNL1        0.0681
     14 C          -1.3152   -0.4234    0.5406 C.3     1  UNL1        0.0104
     15 H          -1.0675   -1.3590    0.0393 H       1  UNL1        0.0878
     16 C          -0.2453    0.6235    0.2242 C.3     1  UNL1        0.0381
     17 C          -0.1886    0.8542   -1.2872 C.3     1  UNL1        0.0104
     18 H           0.0591   -0.0815   -1.7885 H       1  UNL1        0.0878
     19 C          -1.5496    1.3513   -1.7787 C.3     1  UNL1        0.1325
     20 H          -1.5092    1.5156   -2.8554 H       1  UNL1        0.0681
     21 C          -2.6195    0.3044   -1.4623 C.3     1  UNL1        0.1181
     22 H          -2.3718   -0.6313   -1.9636 H       1  UNL1        0.0649
     23 O          -3.8907    0.7686   -1.9213 O.3     1  UNL1       -0.3862
     24 O          -1.8743    2.5779   -1.1215 O.3     1  UNL1       -0.3371
     25 C          -2.3411    3.6028   -2.0012 C.3     1  UNL1        0.1915
     26 H          -1.8422    3.5089   -2.9657 H       1  UNL1        0.0939
     27 C          -2.0304    4.9747   -1.3971 C.3     1  UNL1        0.1506
     28 H          -0.9513    5.0940   -1.3000 H       1  UNL1        0.0702
     29 C          -2.5868    6.0665   -2.3161 C.3     1  UNL1        0.0360
     30 H          -2.0863    6.0191   -3.2833 H       1  UNL1        0.0904
     31 C          -4.0901    5.8418   -2.5057 C.3     1  UNL1        0.1283
     32 H          -4.4842    6.5823   -3.2016 H       1  UNL1        0.0678
     33 C          -4.3213    4.4363   -3.0669 C.3     1  UNL1        0.1159
     34 H          -3.8485    4.3534   -4.0456 H       1  UNL1        0.0648
     35 O          -3.7528    3.4709   -2.1799 O.3     1  UNL1       -0.3403
     36 C          -5.8239    4.1820   -3.2030 C.3     1  UNL1        0.0731
     37 O          -6.0378    2.9180   -3.8343 O.3     1  UNL1       -0.3924
     38 O          -4.7543    5.9685   -1.2468 O.3     1  UNL1       -0.3834
     39 O          -2.6401    5.0784   -0.1088 O.3     1  UNL1       -0.3812
     40 H          -2.5536    3.8547    3.9809 H       1  UNL1        0.0294
     41 H          -4.1039    3.0547    4.3369 H       1  UNL1        0.0294
     42 H          -3.0133    3.7237    1.5635 H       1  UNL1        0.0322
     43 H          -4.3618    4.5428    2.3909 H       1  UNL1        0.0322
     44 H          -1.4533    2.0138    5.2448 H       1  UNL1        0.0839
     45 H          -2.9708    1.1119    5.4725 H       1  UNL1        0.0839
     46 H          -0.5779    0.1345    4.0549 H       1  UNL1        0.1995
     47 H          -1.1480   -0.3977    5.5238 H       1  UNL1        0.1995
     48 H           0.7243    0.2694    0.5743 H       1  UNL1        0.0377
     49 H          -0.4930    1.5592    0.7255 H       1  UNL1        0.0377
     50 H          -3.9280    0.9362   -2.8729 H       1  UNL1        0.2100
     51 H          -6.2825    4.1766   -2.2142 H       1  UNL1        0.0584
     52 H          -6.2725    4.9705   -3.8073 H       1  UNL1        0.0584
     53 H          -6.9701    2.6906   -3.9534 H       1  UNL1        0.2095
     54 H          -5.7114    5.8380   -1.2922 H       1  UNL1        0.2102
     55 H          -1.3728    7.5514   -1.5680 H       1  UNL1        0.1999
     56 H          -2.7732    8.1162   -2.2651 H       1  UNL1        0.1999
     57 H          -2.2393    4.5099    0.5629 H       1  UNL1        0.2103
     58 H           1.7474    1.5543   -1.2760 H       1  UNL1        0.1998
     59 H           0.8517    2.0768   -2.5762 H       1  UNL1        0.1998
     60 H          -0.5046   -1.0390    2.3301 H       1  UNL1        0.1998
     61 H          -1.5930    0.2096    2.4798 H       1  UNL1        0.1998
     62 H          -5.8469    3.7698    0.4537 H       1  UNL1        0.1999
     63 H          -4.5111    3.0590   -0.2363 H       1  UNL1        0.1999
     64 N          -1.4130   -0.0085    4.6205 N.4     1  UNL1        0.2204
     65 H          -2.0339   -0.6701    4.1398 H       1  UNL1        0.1995
     66 N          -2.3701    7.3810   -1.6865 N.4     1  UNL1        0.2246
     67 H          -2.8238    7.3930   -0.7654 H       1  UNL1        0.1999
     68 N           0.8300    1.8788   -1.5772 N.4     1  UNL1        0.2228
     69 H           0.5962    2.7403   -1.0699 H       1  UNL1        0.1998
     70 N          -1.3886   -0.6615    1.9929 N.4     1  UNL1        0.2228
     71 H          -2.1371   -1.3372    2.1867 H       1  UNL1        0.1998
     72 N          -5.2967    2.9145    0.3958 N.4     1  UNL1        0.2243
     73 H          -5.8881    2.1600    0.0281 H       1  UNL1        0.1999
@<TRIPOS>UNITY_ATOM_ATTR
64 1
charge 1
66 1
charge 1
68 1
charge 1
70 1
charge 1
72 1
charge 1
@<TRIPOS>BOND
     1     1     8    1
     2     1     2    1
     3     1    40    1
     4     1    41    1
     5     2     3    1
     6     2    42    1
     7     2    43    1
     8     3     4    1
     9     3     5    1
    10     3    72    1
    11     5     6    1
    12     5     7    1
    13     5    11    1
    14     7     8    1
    15     8     9    1
    16     8    10    1
    17    10    44    1
    18    10    45    1
    19    10    64    1
    20    11    12    1
    21    12    13    1
    22    12    21    1
    23    12    14    1
    24    14    15    1
    25    14    16    1
    26    14    70    1
    27    16    17    1
    28    16    48    1
    29    16    49    1
    30    17    18    1
    31    17    19    1
    32    17    68    1
    33    19    20    1
    34    19    21    1
    35    19    24    1
    36    21    22    1
    37    21    23    1
    38    23    50    1
    39    24    25    1
    40    25    26    1
    41    25    35    1
    42    25    27    1
    43    27    28    1
    44    27    29    1
    45    27    39    1
    46    29    30    1
    47    29    31    1
    48    29    66    1
    49    31    32    1
    50    31    33    1
    51    31    38    1
    52    33    34    1
    53    33    35    1
    54    33    36    1
    55    36    37    1
    56    36    51    1
    57    36    52    1
    58    37    53    1
    59    38    54    1
    60    39    57    1
    61    46    64    1
    62    47    64    1
    63    55    66    1
    64    56    66    1
    65    58    68    1
    66    59    68    1
    67    60    70    1
    68    61    70    1
    69    62    72    1
    70    63    72    1
    71    64    65    1
    72    66    67    1
    73    68    69    1
    74    70    71    1
    75    72    73    1
