@<TRIPOS>MOLECULE
ZINC11616103
 44 46 0 0 0
SMALL
GASTEIGER

@<TRIPOS>ATOM
      1 C           3.0516   -3.0097    1.2431 C.3     1  UNL1       -0.0191
      2 C           2.5117   -2.6673   -0.1469 C.3     1  UNL1        0.1726
      3 H           3.2023   -1.9890   -0.6480 H       1  UNL1        0.0828
      4 C           2.3719   -3.9305   -0.9567 C.2     1  UNL1        0.2542
      5 O           1.2856   -4.2602   -1.3835 O.2     1  UNL1       -0.2717
      6 N           3.4542   -4.6938   -1.2068 N.am    1  UNL1       -0.2987
      7 CA          3.3183   -5.9218   -1.9941 C.3     1  UNL1        0.1278
      8 HA          2.4680   -5.8921   -2.6753 H       1  UNL1        0.0622
      9 C           4.6166   -6.3572   -2.6645 C.3     1  UNL1        0.1003
     10 H           5.5113   -5.7883   -2.4113 H       1  UNL1        0.0640
     11 N           4.3901   -7.6284   -1.9451 N.am    1  UNL1       -0.2761
     12 C           3.3726   -7.1772   -1.1590 C.2     1  UNL1        0.2401
     13 O           2.7685   -7.6030   -0.1974 O.2     1  UNL1       -0.2734
     14 CA          4.0906   -8.7934   -2.7847 C.3     1  UNL1        0.0807
     15 HA          3.0094   -8.9024   -2.8690 H       1  UNL1        0.0576
     16 C           4.6953   -8.6473   -4.2086 C.3     1  UNL1        0.0366
     17 S           4.4370   -6.8299   -4.4318 S.3     1  UNL1       -0.1275
     18 C           6.1813   -9.0109   -4.2287 C.3     1  UNL1       -0.0486
     19 C           3.9091   -9.4593   -5.2397 C.3     1  UNL1       -0.0486
     20 C           4.6592  -10.0278   -2.1336 C.2     1  UNL1        0.0635
     21 O           5.5163   -9.9246   -1.2883 O.co2   1  UNL1       -0.5478
     22 O           1.2345   -2.0389   -0.0203 O.3     1  UNL1       -0.4799
     23 C           1.2258   -0.6980    0.2002 C.ar    1  UNL1        0.1216
     24 C           2.4187   -0.0195    0.4039 C.ar    1  UNL1       -0.0199
     25 C           2.4072    1.3437    0.6273 C.ar    1  UNL1       -0.0583
     26 C           1.2082    2.0319    0.6481 C.ar    1  UNL1       -0.0615
     27 C           0.0180    1.3581    0.4454 C.ar    1  UNL1       -0.0583
     28 C           0.0241   -0.0051    0.2215 C.ar    1  UNL1       -0.0199
     29 H           3.1527   -2.0961    1.8288 H       1  UNL1        0.0270
     30 H           2.3611   -3.6881    1.7442 H       1  UNL1        0.0270
     31 H           4.0258   -3.4890    1.1465 H       1  UNL1        0.0270
     32 H           4.3230   -4.4302   -0.8655 H       1  UNL1        0.1496
     33 H           6.3069  -10.0444   -3.9057 H       1  UNL1        0.0244
     34 H           6.5697   -8.8968   -5.2407 H       1  UNL1        0.0244
     35 H           6.7261   -8.3507   -3.5539 H       1  UNL1        0.0244
     36 H           2.8768   -9.1103   -5.2666 H       1  UNL1        0.0244
     37 H           4.3612   -9.3326   -6.2234 H       1  UNL1        0.0244
     38 H           3.9290  -10.5136   -4.9638 H       1  UNL1        0.0244
     39 H           3.3555   -0.5566    0.3874 H       1  UNL1        0.0654
     40 H           3.3352    1.8715    0.7904 H       1  UNL1        0.0619
     41 H           1.2013    3.0976    0.8229 H       1  UNL1        0.0618
     42 H          -0.9173    1.8978    0.4625 H       1  UNL1        0.0619
     43 H          -0.9058   -0.5309    0.0629 H       1  UNL1        0.0654
     44 OXT         4.2133  -11.2419   -2.4926 O.co2   1  UNL1       -0.5478
@<TRIPOS>UNITY_ATOM_ATTR
44 1
charge -1
@<TRIPOS>BOND
     1     1     2    1
     2     1    29    1
     3     1    30    1
     4     1    31    1
     5     2     3    1
     6     2     4    1
     7     2    22    1
     8     4     5    2
     9     4     6   am
    10     6     7    1
    11     6    32    1
    12     7     8    1
    13     7    12    1
    14     7     9    1
    15     9    10    1
    16     9    17    1
    17     9    11    1
    18    11    12   am
    19    11    14    1
    20    12    13    2
    21    14    15    1
    22    14    16    1
    23    14    20    1
    24    16    17    1
    25    16    18    1
    26    16    19    1
    27    18    33    1
    28    18    34    1
    29    18    35    1
    30    19    36    1
    31    19    37    1
    32    19    38    1
    33    20    21   ar
    34    20    44   ar
    35    22    23    1
    36    23    28   ar
    37    23    24   ar
    38    24    25   ar
    39    24    39    1
    40    25    26   ar
    41    25    40    1
    42    26    27   ar
    43    26    41    1
    44    27    28   ar
    45    27    42    1
    46    28    43    1
