@<TRIPOS>MOLECULE
ZINC00001233
 31 32 0 0 0
SMALL
GASTEIGER

@<TRIPOS>ATOM
      1 C          -4.9006    1.3939   -0.4643 C.3     1  UNL1        0.0067
      2 C          -3.6649    1.7601    0.3604 C.3     1  UNL1        0.2351
      3 N          -3.3572    3.1842    0.1848 N.2     1  UNL1       -0.0704
      4 C          -2.1187    3.5995    0.2041 C.cat   1  UNL1        0.4197
      5 N          -1.0863    2.7509    0.3441 N.2     1  UNL1       -0.0088
      6 C          -1.2542    1.4488    0.2043 C.cat   1  UNL1        0.3829
      7 N          -2.5092    0.9771   -0.1038 N.pl3   1  UNL1       -0.1537
      8 C          -2.6804   -0.2054   -0.8322 C.ar    1  UNL1        0.0981
      9 C          -3.2083   -1.3320   -0.2154 C.ar    1  UNL1       -0.0235
     10 C          -3.3819   -2.4960   -0.9382 C.ar    1  UNL1       -0.0403
     11 C          -3.0189   -2.5438   -2.2728 C.ar    1  UNL1        0.0412
     12 C          -2.4873   -1.4242   -2.8883 C.ar    1  UNL1       -0.0403
     13 C          -2.3173   -0.2559   -2.1717 C.ar    1  UNL1       -0.0235
     14 CL         -3.2313   -4.0108   -3.1764 Cl      1  UNL1       -0.0835
     15 N          -0.2049    0.5877    0.3676 N.pl3   1  UNL1       -0.2507
     16 N          -1.8641    4.9507    0.0829 N.pl3   1  UNL1       -0.2468
     17 C          -3.9263    1.4666    1.8390 C.3     1  UNL1        0.0067
     18 H          -5.1764    0.3584   -0.2653 H       1  UNL1        0.0299
     19 H          -5.7274    2.0492   -0.1903 H       1  UNL1        0.0299
     20 H          -4.6782    1.5134   -1.5246 H       1  UNL1        0.0299
     21 H          -3.4869   -1.2968    0.8274 H       1  UNL1        0.0651
     22 H          -3.7969   -3.3711   -0.4603 H       1  UNL1        0.0633
     23 H          -2.2048   -1.4642   -3.9299 H       1  UNL1        0.0633
     24 H          -1.9020    0.6175   -2.6525 H       1  UNL1        0.0651
     25 H          -0.3556   -0.3703    0.3445 H       1  UNL1        0.2412
     26 H           0.6908    0.9346    0.5026 H       1  UNL1        0.2412
     27 H          -2.5992    5.5759   -0.0148 H       1  UNL1        0.2415
     28 H          -0.9500    5.2750    0.0954 H       1  UNL1        0.2415
     29 H          -3.0476    1.7379    2.4242 H       1  UNL1        0.0299
     30 H          -4.7831    2.0484    2.1790 H       1  UNL1        0.0299
     31 H          -4.1345    0.4044    1.9673 H       1  UNL1        0.0299
@<TRIPOS>BOND
     1     1     2    1
     2     1    18    1
     3     1    19    1
     4     1    20    1
     5     2     7    1
     6     2     3    1
     7     2    17    1
     8     3     4    2
     9     4     5    1
    10     4    16    1
    11     5     6    2
    12     6     7    1
    13     6    15    1
    14     7     8    1
    15     8    13   ar
    16     8     9   ar
    17     9    10   ar
    18     9    21    1
    19    10    11   ar
    20    10    22    1
    21    11    12   ar
    22    11    14    1
    23    12    13   ar
    24    12    23    1
    25    13    24    1
    26    15    25    1
    27    15    26    1
    28    16    27    1
    29    16    28    1
    30    17    29    1
    31    17    30    1
    32    17    31    1
