@<TRIPOS>MOLECULE
ZINC00000189
 44 45 0 0 0
SMALL
GASTEIGER

@<TRIPOS>ATOM
      1 C          -1.0790    1.0573    2.5675 C.3     1  UNL1       -0.0623
      2 C          -1.4372    1.5702    1.1713 C.3     1  UNL1       -0.0401
      3 H          -1.4520    2.6600    1.1773 H       1  UNL1        0.0299
      4 C          -2.8175    1.0436    0.7731 C.3     1  UNL1       -0.0130
      5 C          -3.1757    1.5564   -0.6231 C.3     1  UNL1        0.1039
      6 H          -4.1590    1.1813   -0.9068 H       1  UNL1        0.0734
      7 C          -2.1329    1.0661   -1.6297 C.3     1  UNL1       -0.0105
      8 C          -0.7527    1.5927   -1.2315 C.3     1  UNL1       -0.0313
      9 C          -0.3945    1.0798    0.1647 C.3     1  UNL1       -0.0450
     10 C          -0.7734    3.1225   -1.2231 C.3     1  UNL1       -0.0597
     11 C           0.2901    1.1023   -2.2380 C.3     1  UNL1       -0.0597
     12 O          -3.1954    3.0083   -0.6152 O.3     1  UNL1       -0.4593
     13 C          -4.3635    3.6003   -0.3206 C.2     1  UNL1        0.3409
     14 O          -5.3373    2.9276   -0.0775 O.2     1  UNL1       -0.2475
     15 C          -4.4604    5.1039   -0.2931 C.3     1  UNL1        0.1767
     16 H          -3.7083    5.5041    0.3868 H       1  UNL1        0.0762
     17 C          -4.2252    5.6478   -1.6787 C.ar    1  UNL1       -0.0084
     18 C          -5.2721    5.7238   -2.5783 C.ar    1  UNL1       -0.0556
     19 C          -5.0574    6.2272   -3.8477 C.ar    1  UNL1       -0.0614
     20 C          -3.7936    6.6450   -4.2209 C.ar    1  UNL1       -0.0617
     21 C          -2.7457    6.5642   -3.3231 C.ar    1  UNL1       -0.0614
     22 C          -2.9615    6.0656   -2.0519 C.ar    1  UNL1       -0.0556
     23 O          -5.7613    5.4893    0.1554 O.3     1  UNL1       -0.3762
     24 H          -0.0957    1.4324    2.8512 H       1  UNL1        0.0232
     25 H          -1.8219    1.4066    3.2846 H       1  UNL1        0.0232
     26 H          -1.0642   -0.0326    2.5615 H       1  UNL1        0.0232
     27 H          -3.5604    1.3929    1.4902 H       1  UNL1        0.0303
     28 H          -2.8027   -0.0463    0.7671 H       1  UNL1        0.0303
     29 H          -2.3882    1.4314   -2.6244 H       1  UNL1        0.0306
     30 H          -2.1182   -0.0238   -1.6357 H       1  UNL1        0.0306
     31 H          -0.3797   -0.0101    0.1587 H       1  UNL1        0.0273
     32 H           0.5889    1.4549    0.4484 H       1  UNL1        0.0273
     33 H           0.2461    3.4992   -1.1412 H       1  UNL1        0.0235
     34 H          -1.2215    3.4849   -2.1483 H       1  UNL1        0.0235
     35 H          -1.3597    3.4732   -0.3738 H       1  UNL1        0.0235
     36 H           0.3048    0.0124   -2.2440 H       1  UNL1        0.0235
     37 H           0.0348    1.4677   -3.2328 H       1  UNL1        0.0235
     38 H           1.2734    1.4774   -1.9544 H       1  UNL1        0.0235
     39 H          -6.2585    5.3932   -2.2882 H       1  UNL1        0.0621
     40 H          -5.8760    6.2900   -4.5493 H       1  UNL1        0.0618
     41 H          -3.6249    7.0342   -5.2142 H       1  UNL1        0.0618
     42 H          -1.7583    6.8902   -3.6148 H       1  UNL1        0.0618
     43 H          -2.1427    6.0021   -1.3506 H       1  UNL1        0.0621
     44 H          -6.4816    5.1671   -0.4036 H       1  UNL1        0.2110
@<TRIPOS>BOND
     1     1     2    1
     2     1    24    1
     3     1    25    1
     4     1    26    1
     5     2     3    1
     6     2     9    1
     7     2     4    1
     8     4     5    1
     9     4    27    1
    10     4    28    1
    11     5     6    1
    12     5     7    1
    13     5    12    1
    14     7     8    1
    15     7    29    1
    16     7    30    1
    17     8     9    1
    18     8    10    1
    19     8    11    1
    20     9    31    1
    21     9    32    1
    22    10    33    1
    23    10    34    1
    24    10    35    1
    25    11    36    1
    26    11    37    1
    27    11    38    1
    28    12    13    1
    29    13    14    2
    30    13    15    1
    31    15    16    1
    32    15    17    1
    33    15    23    1
    34    17    22   ar
    35    17    18   ar
    36    18    19   ar
    37    18    39    1
    38    19    20   ar
    39    19    40    1
    40    20    21   ar
    41    20    41    1
    42    21    22   ar
    43    21    42    1
    44    22    43    1
    45    23    44    1
