@<TRIPOS>MOLECULE
ZINC11616698
 76 79 0 0 0
SMALL
GASTEIGER

@<TRIPOS>ATOM
      1 C          -3.0216    8.9281    4.9948 C.3     1  UNL1       -0.0648
      2 C          -3.1680    7.4443    4.6517 C.3     1  UNL1       -0.0458
      3 C          -2.0580    7.0330    3.6823 C.3     1  UNL1        0.0447
      4 C          -2.2023    5.5715    3.3443 C.2     1  UNL1        0.3080
      5 O          -3.1006    4.9251    3.8291 O.2     1  UNL1       -0.2508
      6 O          -1.3327    4.9878    2.5048 O.3     1  UNL1       -0.4494
      7 C          -1.5804    3.5994    2.1595 C.3     1  UNL1        0.1821
      8 C          -2.8454    3.4886    1.2879 C.3     1  UNL1        0.0042
      9 H          -3.5635    2.8151    1.7558 H       1  UNL1        0.0341
     10 C          -2.3931    2.9177   -0.0759 C.3     1  UNL1       -0.0426
     11 C          -0.8713    3.2818   -0.1477 C.3     1  UNL1       -0.0253
     12 H          -0.7689    4.3397   -0.3895 H       1  UNL1        0.0311
     13 C          -0.4107    3.0463    1.3022 C.3     1  UNL1        0.0208
     14 C          -0.3147    1.5493    1.6055 C.3     1  UNL1       -0.0141
     15 C           0.5466    0.8359    0.5662 C.3     1  UNL1        0.0910
     16 H           0.6250   -0.2215    0.8188 H       1  UNL1        0.0626
     17 C          -0.1155    0.9896   -0.8065 C.3     1  UNL1        0.1526
     18 C          -0.0971    2.4745   -1.1611 C.3     1  UNL1        0.0003
     19 H           0.9297    2.8386   -1.1942 H       1  UNL1        0.0336
     20 C          -0.7220    2.6185   -2.5554 C.3     1  UNL1       -0.0432
     21 C           0.3006    2.1182   -3.5771 C.3     1  UNL1       -0.0301
     22 C           0.8305    0.7737   -3.1738 C.2     1  UNL1       -0.0532
     23 C           1.5365    0.0622   -4.0829 C.2     1  UNL1       -0.0148
     24 C           2.0712   -1.2332   -3.5807 C.2     1  UNL1        0.1787
     25 O           2.0511   -2.2525   -4.2450 O.2     1  UNL1       -0.2879
     26 C           2.6323   -1.1850   -2.2020 C.2     1  UNL1       -0.0180
     27 C           1.9106   -0.4625   -1.3172 C.2     1  UNL1       -0.0674
     28 C           0.6429    0.1632   -1.8268 C.3     1  UNL1        0.0443
     29 C          -0.2936   -1.0222   -2.0692 C.3     1  UNL1       -0.0493
     30 F          -1.4360    0.5379   -0.7095 F       1  UNL1       -0.2377
     31 O           1.8500    1.4212    0.5390 O.3     1  UNL1       -0.3886
     32 C           0.9048    3.7677    1.6022 C.3     1  UNL1       -0.0551
     33 C          -3.4721    4.8710    1.0956 C.3     1  UNL1       -0.0583
     34 C          -1.7392    2.7756    3.4114 C.2     1  UNL1        0.2144
     35 O          -2.5532    1.8843    3.4486 O.2     1  UNL1       -0.2895
     36 C          -0.8823    3.0641    4.6170 C.3     1  UNL1        0.1542
     37 O          -1.3168    2.2374    5.7288 O.3     1  UNL1       -0.4568
     38 C          -0.6513    2.3741    6.8864 C.2     1  UNL1        0.3072
     39 O           0.2641    3.1585    6.9681 O.2     1  UNL1       -0.2509
     40 C          -1.0458    1.5492    8.0843 C.3     1  UNL1        0.0421
     41 C          -0.1354    1.8955    9.2642 C.3     1  UNL1       -0.0552
     42 H          -3.0972    9.5210    4.0833 H       1  UNL1        0.0230
     43 H          -3.8123    9.2211    5.6854 H       1  UNL1        0.0230
     44 H          -2.0509    9.0994    5.4601 H       1  UNL1        0.0230
     45 H          -4.1387    7.2730    4.1864 H       1  UNL1        0.0268
     46 H          -3.0923    6.8514    5.5632 H       1  UNL1        0.0268
     47 H          -1.0873    7.2043    4.1476 H       1  UNL1        0.0377
     48 H          -2.1337    7.6259    2.7707 H       1  UNL1        0.0377
     49 H          -2.5263    1.8362   -0.1026 H       1  UNL1        0.0272
     50 H          -2.9387    3.3930   -0.8910 H       1  UNL1        0.0272
     51 H          -1.3155    1.1175    1.5987 H       1  UNL1        0.0298
     52 H           0.1277    1.4122    2.5923 H       1  UNL1        0.0298
     53 H          -1.6300    2.0186   -2.6172 H       1  UNL1        0.0272
     54 H          -0.9570    3.6652   -2.7487 H       1  UNL1        0.0272
     55 H          -0.1755    2.0395   -4.5545 H       1  UNL1        0.0310
     56 H           1.1278    2.8256   -3.6352 H       1  UNL1        0.0310
     57 H           1.6990    0.4069   -5.0934 H       1  UNL1        0.0656
     58 H           3.5473   -1.6901   -1.9296 H       1  UNL1        0.0653
     59 H           2.2298   -0.3401   -0.2927 H       1  UNL1        0.0583
     60 H           0.1725   -1.7164   -2.7684 H       1  UNL1        0.0242
     61 H          -0.4863   -1.5319   -1.1252 H       1  UNL1        0.0242
     62 H          -1.2341   -0.6628   -2.4866 H       1  UNL1        0.0242
     63 H           2.3241    1.3646    1.3799 H       1  UNL1        0.2099
     64 H           1.6974    3.3515    0.9805 H       1  UNL1        0.0237
     65 H           0.7938    4.8303    1.3862 H       1  UNL1        0.0237
     66 H           1.1602    3.6353    2.6535 H       1  UNL1        0.0237
     67 H          -2.7098    5.5712    0.7541 H       1  UNL1        0.0234
     68 H          -4.2676    4.8092    0.3530 H       1  UNL1        0.0234
     69 H          -3.8855    5.2175    2.0428 H       1  UNL1        0.0234
     70 H           0.0731    2.8601    4.4034 H       1  UNL1        0.0780
     71 H          -0.9776    4.1158    4.8873 H       1  UNL1        0.0780
     72 H          -2.0811    1.7645    8.3487 H       1  UNL1        0.0375
     73 H          -0.9444    0.4904    7.8457 H       1  UNL1        0.0375
     74 H           0.8998    1.6801    8.9998 H       1  UNL1        0.0235
     75 H          -0.2368    2.9542    9.5029 H       1  UNL1        0.0235
     76 H          -0.4208    1.2988   10.1306 H       1  UNL1        0.0235
@<TRIPOS>BOND
     1     1     2    1
     2     1    42    1
     3     1    43    1
     4     1    44    1
     5     2     3    1
     6     2    45    1
     7     2    46    1
     8     3     4    1
     9     3    47    1
    10     3    48    1
    11     4     5    2
    12     4     6    1
    13     6     7    1
    14     7    13    1
    15     7     8    1
    16     7    34    1
    17     8     9    1
    18     8    10    1
    19     8    33    1
    20    10    11    1
    21    10    49    1
    22    10    50    1
    23    11    12    1
    24    11    18    1
    25    11    13    1
    26    13    14    1
    27    13    32    1
    28    14    15    1
    29    14    51    1
    30    14    52    1
    31    15    16    1
    32    15    17    1
    33    15    31    1
    34    17    28    1
    35    17    18    1
    36    17    30    1
    37    18    19    1
    38    18    20    1
    39    20    21    1
    40    20    53    1
    41    20    54    1
    42    21    22    1
    43    21    55    1
    44    21    56    1
    45    22    28    1
    46    22    23    2
    47    23    24    1
    48    23    57    1
    49    24    25    2
    50    24    26    1
    51    26    27    2
    52    26    58    1
    53    27    28    1
    54    27    59    1
    55    28    29    1
    56    29    60    1
    57    29    61    1
    58    29    62    1
    59    31    63    1
    60    32    64    1
    61    32    65    1
    62    32    66    1
    63    33    67    1
    64    33    68    1
    65    33    69    1
    66    34    35    2
    67    34    36    1
    68    36    37    1
    69    36    70    1
    70    36    71    1
    71    37    38    1
    72    38    39    2
    73    38    40    1
    74    40    41    1
    75    40    72    1
    76    40    73    1
    77    41    74    1
    78    41    75    1
    79    41    76    1
