@<TRIPOS>MOLECULE
ZINC03830499
 35 36 0 0 0
SMALL
GASTEIGER

@<TRIPOS>ATOM
      1 C          -0.3575   12.2765    0.7274 C.3     1  UNL1        0.0332
      2 C          -0.0071   11.3020    1.8223 C.2     1  UNL1        0.3043
      3 O           0.6351   11.6712    2.7769 O.2     1  UNL1       -0.2512
      4 O          -0.4084   10.0240    1.7370 O.3     1  UNL1       -0.4603
      5 C          -0.1335    9.1692    2.8781 C.3     1  UNL1        0.1164
      6 C          -0.7587    7.8163    2.6546 C.2     1  UNL1        0.0004
      7 CA         -0.4975    6.9017    3.5761 C.2     1  UNL1        0.0631
      8 N          -0.9877    5.5931    3.4335 N.am    1  UNL1       -0.2533
      9 C          -2.1296    5.1600    2.5666 C.3     1  UNL1        0.1041
     10 H          -3.1333    5.3118    2.9636 H       1  UNL1        0.0644
     11 CA         -1.5631    3.7535    2.7288 C.3     1  UNL1        0.1283
     12 HA         -2.2776    3.0384    3.1366 H       1  UNL1        0.0622
     13 C          -0.6257    4.3401    3.7706 C.2     1  UNL1        0.2438
     14 O           0.1419    3.8673    4.5821 O.2     1  UNL1       -0.2731
     15 N          -0.8766    3.2548    1.5345 N.am    1  UNL1       -0.3009
     16 C          -0.7439    1.9281    1.3381 C.2     1  UNL1        0.2275
     17 O          -1.1929    1.1470    2.1500 O.2     1  UNL1       -0.2747
     18 C          -0.0378    1.4152    0.1096 C.3     1  UNL1        0.1110
     19 C          -0.0255   -0.0567    0.1292 C.1     1  UNL1        0.0719
     20 N          -0.0161   -1.1925    0.1444 N.1     1  UNL1       -0.1961
     21 S          -1.8287    5.9413    0.9455 S.3     1  UNL1       -0.1310
     22 C          -1.5921    7.6814    1.4220 C.3     1  UNL1        0.0219
     23 C           0.3109    7.2584    4.7560 C.2     1  UNL1        0.0860
     24 O           0.6418    6.3985    5.5482 O.co2   1  UNL1       -0.5433
     25 H          -1.4383   12.4138    0.6954 H       1  UNL1        0.0342
     26 H           0.1247   13.2338    0.9250 H       1  UNL1        0.0342
     27 H          -0.0122   11.8866   -0.2301 H       1  UNL1        0.0342
     28 H          -0.5526    9.6188    3.7783 H       1  UNL1        0.0746
     29 H           0.9442    9.0563    2.9962 H       1  UNL1        0.0746
     30 H          -0.5175    3.8796    0.8852 H       1  UNL1        0.1496
     31 H           0.9868    1.7869    0.0976 H       1  UNL1        0.0513
     32 H          -0.5606    1.7623   -0.7816 H       1  UNL1        0.0513
     33 H          -1.1026    8.2095    0.6038 H       1  UNL1        0.0424
     34 H          -2.5667    8.1353    1.6018 H       1  UNL1        0.0424
     35 OXT         0.6830    8.5382    4.9561 O.co2   1  UNL1       -0.5433
@<TRIPOS>UNITY_ATOM_ATTR
35 1
charge -1
@<TRIPOS>BOND
     1     1     2    1
     2     1    25    1
     3     1    26    1
     4     1    27    1
     5     2     3    2
     6     2     4    1
     7     4     5    1
     8     5     6    1
     9     5    28    1
    10     5    29    1
    11     6    22    1
    12     6     7    2
    13     7     8    1
    14     7    23    1
    15     8    13   am
    16     8     9    1
    17     9    10    1
    18     9    11    1
    19     9    21    1
    20    11    12    1
    21    11    13    1
    22    11    15    1
    23    13    14    2
    24    15    16   am
    25    15    30    1
    26    16    17    2
    27    16    18    1
    28    18    19    1
    29    18    31    1
    30    18    32    1
    31    19    20    3
    32    21    22    1
    33    22    33    1
    34    22    34    1
    35    23    24   ar
    36    23    35   ar
