@<TRIPOS>MOLECULE
ZINC03831354
 31 33 0 0 0
SMALL
GASTEIGER

@<TRIPOS>ATOM
      1 C          -0.7527    1.5927   -1.2315 C.3     1  UNL1       -0.0532
      2 C          -0.0127    1.0858    0.0080 C.3     1  UNL1        0.0208
      3 H           0.0021   -0.0041    0.0020 H       1  UNL1        0.0406
      4 C          -0.7181    1.5718    1.2479 C.ar    1  UNL1       -0.0386
      5 C          -0.8556    2.9285    1.4781 C.ar    1  UNL1       -0.0545
      6 C          -1.5055    3.3738    2.6111 C.ar    1  UNL1       -0.0187
      7 C          -2.0146    2.4608    3.5282 C.ar    1  UNL1        0.1339
      8 C          -1.8702    1.1028    3.2975 C.ar    1  UNL1       -0.0003
      9 C          -1.2221    0.6619    2.1572 C.ar    1  UNL1       -0.0510
     10 C          -2.4110    0.0951    4.2756 C.3     1  UNL1        0.0061
     11 C          -2.6760    0.7436    5.6056 C.ar    1  UNL1        0.0190
     12 C          -2.8197   -0.0453    6.7349 C.ar    1  UNL1       -0.0518
     13 C          -3.0646    0.5757    7.9512 C.ar    1  UNL1       -0.0431
     14 C          -3.1549    1.9530    7.9963 C.ar    1  UNL1        0.0314
     15 N          -3.0136    2.6760    6.9037 N.ar    1  UNL1       -0.2207
     16 C          -2.7798    2.1212    5.7210 C.ar    1  UNL1        0.2240
     17 O          -2.6456    2.9188    4.6357 O.3     1  UNL1       -0.4375
     18 C           1.4011    1.6074   -0.0027 C.2     1  UNL1        0.0489
     19 O           1.7955    2.3025    0.9035 O.co2   1  UNL1       -0.5492
     20 H          -0.2425    1.2411   -2.1283 H       1  UNL1        0.0239
     21 H          -1.7753    1.2154   -1.2238 H       1  UNL1        0.0239
     22 H          -0.7675    2.6825   -1.2255 H       1  UNL1        0.0239
     23 H          -0.4575    3.6395    0.7693 H       1  UNL1        0.0622
     24 H          -1.6154    4.4336    2.7880 H       1  UNL1        0.0654
     25 H          -1.1097   -0.3971    1.9775 H       1  UNL1        0.0624
     26 H          -3.3398   -0.3221    3.8866 H       1  UNL1        0.0364
     27 H          -1.6834   -0.7058    4.4071 H       1  UNL1        0.0364
     28 H          -2.7434   -1.1206    6.6699 H       1  UNL1        0.0622
     29 H          -3.1827   -0.0102    8.8508 H       1  UNL1        0.0633
     30 H          -3.3442    2.4441    8.9394 H       1  UNL1        0.0831
     31 O           2.2223    1.2999   -1.0190 O.co2   1  UNL1       -0.5492
@<TRIPOS>UNITY_ATOM_ATTR
31 1
charge -1
@<TRIPOS>BOND
     1     1     2    1
     2     1    20    1
     3     1    21    1
     4     1    22    1
     5     2     3    1
     6     2     4    1
     7     2    18    1
     8     4     9   ar
     9     4     5   ar
    10     5     6   ar
    11     5    23    1
    12     6     7   ar
    13     6    24    1
    14     7    17    1
    15     7     8   ar
    16     8     9   ar
    17     8    10    1
    18     9    25    1
    19    10    11    1
    20    10    26    1
    21    10    27    1
    22    11    16   ar
    23    11    12   ar
    24    12    13   ar
    25    12    28    1
    26    13    14   ar
    27    13    29    1
    28    14    15   ar
    29    14    30    1
    30    15    16   ar
    31    16    17    1
    32    18    19   ar
    33    18    31   ar
