@<TRIPOS>MOLECULE
ZINC00001547
 39 40 0 0 0
SMALL
GASTEIGER

@<TRIPOS>ATOM
      1 C           2.2580    4.5456    0.0030 C.ar    1  UNL1       -0.0538
      2 C           1.0618    5.2151    0.0120 C.ar    1  UNL1       -0.0465
      3 C           1.0425    6.6116    0.0237 C.ar    1  UNL1        0.0608
      4 C           2.2414    7.3281    0.0166 C.ar    1  UNL1       -0.0465
      5 C           3.4391    6.6612    0.0023 C.ar    1  UNL1       -0.0538
      6 C           3.4600    5.2621   -0.0048 C.ar    1  UNL1       -0.0250
      7 C           4.7449    4.5447   -0.0197 C.2     1  UNL1       -0.0539
      8 C           5.9001    5.2340   -0.0270 C.2     1  UNL1       -0.0506
      9 C           7.1844    4.5170   -0.0419 C.ar    1  UNL1        0.0165
     10 C           7.2061    3.1185   -0.0427 C.ar    1  UNL1       -0.0503
     11 C           8.3972    2.4509   -0.0614 C.ar    1  UNL1       -0.0462
     12 C           9.6014    3.1588   -0.0691 C.ar    1  UNL1        0.0643
     13 C           9.5934    4.5541   -0.0632 C.ar    1  UNL1       -0.0049
     14 C           8.3905    5.2351   -0.0497 C.ar    1  UNL1        0.1248
     15 O           8.3757    6.5932   -0.0434 O.3     1  UNL1       -0.5062
     16 C          10.8877    2.4278   -0.0840 C.2     1  UNL1        0.2663
     17 N          10.8970    1.0495   -0.0899 N.pl3   1  UNL1       -0.2497
     18 C          -0.2490    7.3326    0.0382 C.2     1  UNL1        0.2662
     19 N          -1.4326    6.6262    0.0454 N.pl3   1  UNL1       -0.2497
     20 H           2.2728    3.4657   -0.0028 H       1  UNL1        0.0624
     21 H           0.1339    4.6623    0.0138 H       1  UNL1        0.0626
     22 H           2.2250    8.4079    0.0220 H       1  UNL1        0.0626
     23 H           4.3660    7.2153   -0.0041 H       1  UNL1        0.0624
     24 H           4.7605    3.4649   -0.0247 H       1  UNL1        0.0624
     25 H           5.8845    6.3139   -0.0220 H       1  UNL1        0.0625
     26 H           6.2786    2.5654   -0.0322 H       1  UNL1        0.0625
     27 H           8.4083    1.3710   -0.0660 H       1  UNL1        0.0626
     28 H          10.5249    5.1008   -0.0688 H       1  UNL1        0.0663
     29 H           8.3794    6.9825    0.8417 H       1  UNL1        0.2922
     30 H          12.9061    2.6976   -0.1016 H       1  UNL1        0.3009
     31 H          10.0603    0.5587   -0.0841 H       1  UNL1        0.2883
     32 H          11.7403    0.5701   -0.0997 H       1  UNL1        0.2883
     33 H          -1.0642    9.1989    0.0538 H       1  UNL1        0.3009
     34 H          -1.4187    5.6563    0.0408 H       1  UNL1        0.2883
     35 H          -2.2796    7.0990    0.0548 H       1  UNL1        0.2883
     36 N          11.9945    3.1556   -0.0912 N.2     1  UNL1       -0.2884
     37 H          11.9350    4.1806   -0.0863 H       1  UNL1        0.3009
     38 N          -0.2002    8.6566    0.0438 N.2     1  UNL1       -0.2884
     39 H           0.7073    9.1369    0.0380 H       1  UNL1        0.3009
@<TRIPOS>UNITY_ATOM_ATTR
36 1
charge 1
38 1
charge 1
@<TRIPOS>BOND
     1     1     6   ar
     2     1     2   ar
     3     1    20    1
     4     2     3   ar
     5     2    21    1
     6     3     4   ar
     7     3    18    1
     8     4     5   ar
     9     4    22    1
    10     5     6   ar
    11     5    23    1
    12     6     7    1
    13     7     8    2
    14     7    24    1
    15     8     9    1
    16     8    25    1
    17     9    14   ar
    18     9    10   ar
    19    10    11   ar
    20    10    26    1
    21    11    12   ar
    22    11    27    1
    23    12    13   ar
    24    12    16    1
    25    13    14   ar
    26    13    28    1
    27    14    15    1
    28    15    29    1
    29    16    17    1
    30    16    36    2
    31    17    31    1
    32    17    32    1
    33    18    19    1
    34    18    38    2
    35    19    34    1
    36    19    35    1
    37    30    36    1
    38    33    38    1
    39    36    37    1
    40    38    39    1
