@<TRIPOS>MOLECULE
ZINC01542930
 63 65 0 0 0
SMALL
GASTEIGER

@<TRIPOS>ATOM
      1 C          -9.6284    4.1758   -7.6257 C.3     1  UNL1       -0.0653
      2 C          -8.8749    3.6863   -6.3874 C.3     1  UNL1       -0.0559
      3 C          -7.3684    3.7682   -6.6416 C.3     1  UNL1       -0.0533
      4 C          -6.6148    3.2788   -5.4033 C.3     1  UNL1       -0.0530
      5 C          -5.1083    3.3607   -5.6576 C.3     1  UNL1       -0.0523
      6 C          -4.3547    2.8713   -4.4192 C.3     1  UNL1       -0.0439
      7 C          -2.8482    2.9532   -4.6735 C.3     1  UNL1       -0.0096
      8 C          -2.4587    4.4033   -4.9675 C.3     1  UNL1       -0.0558
      9 C          -2.4848    2.0744   -5.8721 C.3     1  UNL1       -0.0558
     10 C          -2.1060    2.4711   -3.4538 C.ar    1  UNL1       -0.0348
     11 C          -2.8080    2.0469   -2.3415 C.ar    1  UNL1       -0.0160
     12 C          -2.1230    1.6006   -1.2218 C.ar    1  UNL1        0.1241
     13 C          -0.7345    1.5796   -1.2144 C.ar    1  UNL1        0.0395
     14 C          -0.0226    1.9869   -2.3363 C.ar    1  UNL1        0.1285
     15 C          -0.7137    2.4186   -3.4651 C.ar    1  UNL1       -0.0157
     16 O           1.3353    1.9948   -2.3676 O.3     1  UNL1       -0.4855
     17 C           2.0477    1.2750   -1.3587 C.3     1  UNL1        0.1085
     18 C           1.4251    1.6113   -0.0029 C.3     1  UNL1        0.0062
     19 H           1.4168    2.6930    0.1311 H       1  UNL1        0.0345
     20 C          -0.0127    1.0858    0.0080 C.3     1  UNL1        0.0042
     21 H           0.0021   -0.0041    0.0020 H       1  UNL1        0.0359
     22 C          -0.7089    1.5751    1.2795 C.3     1  UNL1        0.0132
     23 C           0.1184    1.1202    2.4645 C.2     1  UNL1        0.1340
     24 O          -0.3970    0.5338    3.3857 O.2     1  UNL1       -0.2974
     25 C           1.6012    1.4148    2.4721 C.3     1  UNL1        0.0062
     26 C           2.2086    0.9644    1.1371 C.3     1  UNL1       -0.0394
     27 C           3.5196    1.6923   -1.3687 C.3     1  UNL1       -0.0249
     28 C           1.9347   -0.2283   -1.6200 C.3     1  UNL1       -0.0249
     29 O          -2.8126    1.1826   -0.1279 O.3     1  UNL1       -0.5064
     30 H          -9.3510    5.2088   -7.8352 H       1  UNL1        0.0230
     31 H          -9.3695    3.5497   -8.4796 H       1  UNL1        0.0230
     32 H         -10.7017    4.1174   -7.4445 H       1  UNL1        0.0230
     33 H          -9.1524    2.6533   -6.1779 H       1  UNL1        0.0263
     34 H          -9.1338    4.3124   -5.5335 H       1  UNL1        0.0263
     35 H          -7.0909    4.8013   -6.8511 H       1  UNL1        0.0265
     36 H          -7.1095    3.1422   -7.4955 H       1  UNL1        0.0265
     37 H          -6.8923    2.2457   -5.1938 H       1  UNL1        0.0265
     38 H          -6.8737    3.9048   -4.5494 H       1  UNL1        0.0265
     39 H          -4.8308    4.3938   -5.8670 H       1  UNL1        0.0266
     40 H          -4.8494    2.7347   -6.5115 H       1  UNL1        0.0266
     41 H          -4.6322    1.8382   -4.2098 H       1  UNL1        0.0274
     42 H          -4.6136    3.4973   -3.5653 H       1  UNL1        0.0274
     43 H          -1.3855    4.4616   -5.1487 H       1  UNL1        0.0238
     44 H          -2.9956    4.7519   -5.8497 H       1  UNL1        0.0238
     45 H          -2.7176    5.0293   -4.1136 H       1  UNL1        0.0238
     46 H          -2.7623    1.0414   -5.6626 H       1  UNL1        0.0238
     47 H          -3.0217    2.4231   -6.7543 H       1  UNL1        0.0238
     48 H          -1.4115    2.1328   -6.0532 H       1  UNL1        0.0238
     49 H          -3.8878    2.0627   -2.3446 H       1  UNL1        0.0657
     50 H          -0.1665    2.7428   -4.3380 H       1  UNL1        0.0657
     51 H          -0.7744    2.5728    1.2608 H       1  UNL1        0.0348
     52 H          -1.7091    1.1462    1.3411 H       1  UNL1        0.0348
     53 H           2.0356    0.9194    3.2244 H       1  UNL1        0.0342
     54 H           1.7607    2.4852    2.6026 H       1  UNL1        0.0342
     55 H           2.1452   -0.1206    1.0543 H       1  UNL1        0.0273
     56 H           3.2518    1.2763    1.0865 H       1  UNL1        0.0273
     57 H           4.0541    1.1579   -0.5834 H       1  UNL1        0.0268
     58 H           3.9592    1.4509   -2.3365 H       1  UNL1        0.0268
     59 H           3.5942    2.7656   -1.1934 H       1  UNL1        0.0268
     60 H           0.8840   -0.5186   -1.6231 H       1  UNL1        0.0268
     61 H           2.3794   -0.4634   -2.5869 H       1  UNL1        0.0268
     62 H           2.4600   -0.7738   -0.8361 H       1  UNL1        0.0268
     63 H          -3.0015    1.8846    0.5098 H       1  UNL1        0.2921
@<TRIPOS>BOND
     1     1     2    1
     2     1    30    1
     3     1    31    1
     4     1    32    1
     5     2     3    1
     6     2    33    1
     7     2    34    1
     8     3     4    1
     9     3    35    1
    10     3    36    1
    11     4     5    1
    12     4    37    1
    13     4    38    1
    14     5     6    1
    15     5    39    1
    16     5    40    1
    17     6     7    1
    18     6    41    1
    19     6    42    1
    20     7     8    1
    21     7     9    1
    22     7    10    1
    23     8    43    1
    24     8    44    1
    25     8    45    1
    26     9    46    1
    27     9    47    1
    28     9    48    1
    29    10    15   ar
    30    10    11   ar
    31    11    12   ar
    32    11    49    1
    33    12    13   ar
    34    12    29    1
    35    13    20    1
    36    13    14   ar
    37    14    15   ar
    38    14    16    1
    39    15    50    1
    40    16    17    1
    41    17    18    1
    42    17    27    1
    43    17    28    1
    44    18    19    1
    45    18    26    1
    46    18    20    1
    47    20    21    1
    48    20    22    1
    49    22    23    1
    50    22    51    1
    51    22    52    1
    52    23    24    2
    53    23    25    1
    54    25    26    1
    55    25    53    1
    56    25    54    1
    57    26    55    1
    58    26    56    1
    59    27    57    1
    60    27    58    1
    61    27    59    1
    62    28    60    1
    63    28    61    1
    64    28    62    1
    65    29    63    1
