@<TRIPOS>MOLECULE
ZINC01692922
 45 44 0 0 0
SMALL
GASTEIGER

@<TRIPOS>ATOM
      1 C           7.9666    2.5371    5.5023 C.3     1  UNL1       -0.0652
      2 C           6.5799    1.9171    5.6858 C.3     1  UNL1       -0.0545
      3 C           5.6811    2.3225    4.5159 C.3     1  UNL1       -0.0375
      4 C           4.2944    1.7025    4.6994 C.3     1  UNL1        0.0147
      5 N           3.4338    2.0906    3.5792 N.am    1  UNL1       -0.2811
      6 C           2.1583    1.6582    3.5280 C.2     1  UNL1        0.4003
      7 O           1.7222    0.9464    4.4109 O.2     1  UNL1       -0.2265
      8 O           1.3674    2.0149    2.4985 O.3     1  UNL1       -0.4497
      9 C           0.0052    1.5124    2.5088 C.3     1  UNL1        0.1025
     10 C          -0.7348    2.0192    1.2692 C.3     1  UNL1        0.0363
     11 C          -0.7556    3.5490    1.2776 C.3     1  UNL1       -0.0533
     12 C          -0.0187    1.5258    0.0104 C.3     1  UNL1       -0.0416
     13 C           0.0021   -0.0041    0.0020 C.3     1  UNL1       -0.0552
     14 C           0.7182   -0.4975   -1.2568 C.3     1  UNL1       -0.0653
     15 C          -2.1702    1.4896    1.2801 C.3     1  UNL1        0.1025
     16 O          -2.8725    1.9706    0.1038 O.3     1  UNL1       -0.4499
     17 C          -4.1567    1.5922   -0.0388 C.2     1  UNL1        0.3977
     18 O          -4.6764    0.8795    0.7969 O.2     1  UNL1       -0.2267
     19 N          -4.8658    2.0039   -1.1085 N.am    1  UNL1       -0.2950
     20 H           7.8779    3.6230    5.4715 H       1  UNL1        0.0230
     21 H           8.6069    2.2482    6.3357 H       1  UNL1        0.0230
     22 H           8.4028    2.1816    4.5687 H       1  UNL1        0.0230
     23 H           6.1436    2.2725    6.6193 H       1  UNL1        0.0263
     24 H           6.6686    0.8311    5.7165 H       1  UNL1        0.0263
     25 H           6.1174    1.9670    3.5824 H       1  UNL1        0.0280
     26 H           5.5924    3.4084    4.4852 H       1  UNL1        0.0280
     27 H           3.8582    2.0579    5.6329 H       1  UNL1        0.0463
     28 H           4.3831    0.6165    4.7301 H       1  UNL1        0.0463
     29 H           3.7819    2.6589    2.8744 H       1  UNL1        0.1520
     30 H          -0.5050    1.8639    3.4056 H       1  UNL1        0.0704
     31 H           0.0200    0.4225    2.5028 H       1  UNL1        0.0704
     32 H          -1.2827    3.9101    0.3946 H       1  UNL1        0.0237
     33 H          -1.2657    3.9005    2.1744 H       1  UNL1        0.0237
     34 H           0.2670    3.9263    1.2699 H       1  UNL1        0.0237
     35 H           1.0039    1.9031    0.0027 H       1  UNL1        0.0273
     36 H          -0.5459    1.8868   -0.8726 H       1  UNL1        0.0273
     37 H           0.5293   -0.3651    0.8851 H       1  UNL1        0.0263
     38 H          -1.0205   -0.3814    0.0098 H       1  UNL1        0.0263
     39 H           0.1910   -0.1364   -2.1398 H       1  UNL1        0.0230
     40 H           1.7408   -0.1202   -1.2645 H       1  UNL1        0.0230
     41 H           0.7330   -1.5874   -1.2628 H       1  UNL1        0.0230
     42 H          -2.1554    0.3997    1.2741 H       1  UNL1        0.0704
     43 H          -2.6804    1.8411    2.1769 H       1  UNL1        0.0704
     44 H          -4.4509    2.5728   -1.7756 H       1  UNL1        0.1482
     45 H          -5.7910    1.7312   -1.2112 H       1  UNL1        0.1482
@<TRIPOS>BOND
     1     1     2    1
     2     1    20    1
     3     1    21    1
     4     1    22    1
     5     2     3    1
     6     2    23    1
     7     2    24    1
     8     3     4    1
     9     3    25    1
    10     3    26    1
    11     4     5    1
    12     4    27    1
    13     4    28    1
    14     5     6   am
    15     5    29    1
    16     6     7    2
    17     6     8    1
    18     8     9    1
    19     9    10    1
    20     9    30    1
    21     9    31    1
    22    10    11    1
    23    10    12    1
    24    10    15    1
    25    11    32    1
    26    11    33    1
    27    11    34    1
    28    12    13    1
    29    12    35    1
    30    12    36    1
    31    13    14    1
    32    13    37    1
    33    13    38    1
    34    14    39    1
    35    14    40    1
    36    14    41    1
    37    15    16    1
    38    15    42    1
    39    15    43    1
    40    16    17    1
    41    17    18    2
    42    17    19   am
    43    19    44    1
    44    19    45    1
