@<TRIPOS>MOLECULE
ZINC03776970
 46 48 0 0 0
SMALL
GASTEIGER

@<TRIPOS>ATOM
      1 C           1.0590   -8.3812    6.2968 C.3     1  UNL1       -0.0465
      2 C           1.2787   -6.9635    5.8354 C.2     1  UNL1       -0.0868
      3 C           2.5193   -6.4890    5.7043 C.2     1  UNL1       -0.0602
      4 C           2.7325   -5.1136    5.2566 C.2     1  UNL1       -0.0146
      5 CA          4.0080   -4.6825    5.2610 C.2     1  UNL1        0.0638
      6 N           4.3198   -3.4072    4.7685 N.am    1  UNL1       -0.2531
      7 C           3.3748   -2.2562    4.6141 C.3     1  UNL1        0.1041
      8 H           3.1676   -1.6814    5.5168 H       1  UNL1        0.0644
      9 CA          4.4324   -1.6662    3.6870 C.3     1  UNL1        0.1285
     10 HA          4.7750   -0.6763    3.9881 H       1  UNL1        0.0622
     11 C           5.3413   -2.7939    4.1456 C.2     1  UNL1        0.2438
     12 O           6.5203   -3.0420    4.0058 O.2     1  UNL1       -0.2731
     13 N           4.0763   -1.7385    2.2677 N.am    1  UNL1       -0.2968
     14 C           4.6080   -0.8607    1.3940 C.2     1  UNL1        0.2665
     15 O           5.3813   -0.0111    1.7827 O.2     1  UNL1       -0.2692
     16 CA          4.2417   -0.9350   -0.0659 C.3     1  UNL1        0.0789
     17 HA          4.1899   -1.9791   -0.3748 H       1  UNL1        0.1002
     18 C           2.9016   -0.2803   -0.2815 C.ar    1  UNL1        0.0093
     19 C           1.7641   -1.0578   -0.3965 C.ar    1  UNL1       -0.0493
     20 C           0.5344   -0.4600   -0.5937 C.ar    1  UNL1       -0.0197
     21 C           0.4415    0.9218   -0.6764 C.ar    1  UNL1        0.1169
     22 C           1.5843    1.6997   -0.5607 C.ar    1  UNL1       -0.0197
     23 C           2.8116    1.0970   -0.3636 C.ar    1  UNL1       -0.0493
     24 O          -0.7663    1.5120   -0.8760 O.3     1  UNL1       -0.5068
     25 S           1.9025   -2.9408    3.7827 S.3     1  UNL1       -0.1308
     26 C           1.5081   -4.3600    4.8503 C.3     1  UNL1        0.0224
     27 C           5.0724   -5.5476    5.7819 C.2     1  UNL1        0.0862
     28 O           5.4088   -5.4631    6.9474 O.co2   1  UNL1       -0.5433
     29 H           1.5312   -9.0689    5.5953 H       1  UNL1        0.0272
     30 H           1.4973   -8.5134    7.2860 H       1  UNL1        0.0272
     31 H          -0.0105   -8.5867    6.3429 H       1  UNL1        0.0272
     32 H           0.4323   -6.3314    5.6107 H       1  UNL1        0.0569
     33 H           3.3657   -7.1211    5.9290 H       1  UNL1        0.0618
     34 H           3.4578   -2.4180    1.9569 H       1  UNL1        0.1497
     35 H           1.8369   -2.1334   -0.3316 H       1  UNL1        0.0623
     36 H          -0.3539   -1.0677   -0.6831 H       1  UNL1        0.0654
     37 H           1.5146    2.7755   -0.6251 H       1  UNL1        0.0654
     38 H           3.7016    1.7022   -0.2731 H       1  UNL1        0.0623
     39 H          -1.2387    1.7268   -0.0601 H       1  UNL1        0.2921
     40 H1          5.0723   -0.3293   -1.8496 H       1  UNL1        0.2005
     41 H2          5.3281    0.7318   -0.5948 H       1  UNL1        0.2005
     42 H           0.8400   -5.0329    4.3129 H       1  UNL1        0.0426
     43 H           1.0007   -3.9996    5.7452 H       1  UNL1        0.0426
     44 N           5.2813   -0.2518   -0.8556 N.4     1  UNL1        0.2307
     45 H3          6.1903   -0.6914   -0.6692 H       1  UNL1        0.2005
     46 OXT         5.6779   -6.4366    4.9679 O.co2   1  UNL1       -0.5433
@<TRIPOS>UNITY_ATOM_ATTR
44 1
charge 1
46 1
charge -1
@<TRIPOS>BOND
     1     1     2    1
     2     1    29    1
     3     1    30    1
     4     1    31    1
     5     2     3    2
     6     2    32    1
     7     3     4    1
     8     3    33    1
     9     4    26    1
    10     4     5    2
    11     5     6    1
    12     5    27    1
    13     6    11   am
    14     6     7    1
    15     7     8    1
    16     7     9    1
    17     7    25    1
    18     9    10    1
    19     9    11    1
    20     9    13    1
    21    11    12    2
    22    13    14   am
    23    13    34    1
    24    14    15    2
    25    14    16    1
    26    16    17    1
    27    16    18    1
    28    16    44    1
    29    18    23   ar
    30    18    19   ar
    31    19    20   ar
    32    19    35    1
    33    20    21   ar
    34    20    36    1
    35    21    22   ar
    36    21    24    1
    37    22    23   ar
    38    22    37    1
    39    23    38    1
    40    24    39    1
    41    25    26    1
    42    26    42    1
    43    26    43    1
    44    27    28   ar
    45    27    46   ar
    46    40    44    1
    47    41    44    1
    48    44    45    1
