@<TRIPOS>MOLECULE
ZINC00538451
 42 44 0 0 0
SMALL
GASTEIGER

@<TRIPOS>ATOM
      1 C          -4.8358    0.7666    2.7754 C.ar    1  UNL1       -0.0422
      2 C          -5.1927    0.4176    1.4840 C.ar    1  UNL1       -0.0445
      3 C          -4.4103    0.8221    0.4306 C.ar    1  UNL1        0.0408
      4 C          -3.2459    1.5857    0.6018 C.ar    1  UNL1        0.0611
      5 C          -2.9079    1.9253    1.9220 C.ar    1  UNL1       -0.0186
      6 C          -3.6914    1.5202    2.9778 C.ar    1  UNL1        0.0430
      7 CL         -3.2375    1.9624    4.5940 Cl      1  UNL1       -0.0835
      8 N          -2.5651    1.9156   -0.5580 N.ar    1  UNL1       -0.2930
      9 C          -3.0225    1.5169   -1.7611 C.ar    1  UNL1        0.2920
     10 O          -2.5499    1.7249   -2.8633 O.2     1  UNL1       -0.2594
     11 S          -4.4957    0.6045   -1.3305 S.2     1  UNL1       -0.0266
     12 C          -1.3380    2.7117   -0.4766 C.3     1  UNL1        0.1036
     13 C          -0.1515    1.7930   -0.3383 C.2     1  UNL1        0.2358
     14 O          -0.3148    0.5916   -0.3104 O.2     1  UNL1       -0.2736
     15 N           1.0917    2.3063   -0.2511 N.am    1  UNL1       -0.2899
     16 C           1.3126    3.7600   -0.2891 C.3     1  UNL1        0.0550
     17 C           2.1870    4.1462    0.9145 C.3     1  UNL1       -0.0156
     18 C           3.1014    1.9054    1.0694 C.3     1  UNL1       -0.0156
     19 C           2.2639    1.4275   -0.1216 C.3     1  UNL1        0.0550
     20 C           4.3530    3.7884    1.9357 C.3     1  UNL1       -0.0081
     21 C           5.7594    3.2915    1.5951 C.3     1  UNL1        0.0841
     22 O           6.1958    3.8957    0.3759 O.3     1  UNL1       -0.3898
     23 H          -5.4418    0.4558    3.6136 H       1  UNL1        0.0632
     24 H          -6.0813   -0.1699    1.3062 H       1  UNL1        0.0630
     25 H          -2.0210    2.5119    2.1109 H       1  UNL1        0.0653
     26 H          -1.3897    3.3715    0.3895 H       1  UNL1        0.0589
     27 H          -1.2315    3.3088   -1.3823 H       1  UNL1        0.0589
     28 H           1.8199    4.0292   -1.2155 H       1  UNL1        0.0517
     29 H           0.3551    4.2775   -0.2288 H       1  UNL1        0.0517
     30 H           1.6377    3.9677    1.8389 H       1  UNL1        0.0830
     31 H           2.4518    5.2013    0.8462 H       1  UNL1        0.0830
     32 H           2.5393    1.7581    1.9916 H       1  UNL1        0.0830
     33 H           4.0292    1.3350    1.1138 H       1  UNL1        0.0830
     34 H           1.9358    0.4022    0.0493 H       1  UNL1        0.0517
     35 H           2.8609    1.4768   -1.0323 H       1  UNL1        0.0517
     36 H           4.3516    4.8777    1.9728 H       1  UNL1        0.0837
     37 H           4.0522    3.3914    2.9053 H       1  UNL1        0.0837
     38 H           6.4443    3.5602    2.3994 H       1  UNL1        0.0610
     39 H           5.7436    2.2079    1.4783 H       1  UNL1        0.0610
     40 H           7.0819    3.6257    0.0983 H       1  UNL1        0.2096
     41 N           3.4241    3.3363    0.8793 N.4     1  UNL1        0.2391
     42 H           3.8750    3.4571   -0.0352 H       1  UNL1        0.2035
@<TRIPOS>UNITY_ATOM_ATTR
41 1
charge 1
@<TRIPOS>BOND
     1     1     6   ar
     2     1     2   ar
     3     1    23    1
     4     2     3   ar
     5     2    24    1
     6     3    11   ar
     7     3     4   ar
     8     4     5   ar
     9     4     8   ar
    10     5     6   ar
    11     5    25    1
    12     6     7    1
    13     8     9   ar
    14     8    12    1
    15     9    10    2
    16     9    11   ar
    17    12    13    1
    18    12    26    1
    19    12    27    1
    20    13    14    2
    21    13    15   am
    22    15    19    1
    23    15    16    1
    24    16    17    1
    25    16    28    1
    26    16    29    1
    27    17    30    1
    28    17    31    1
    29    17    41    1
    30    18    19    1
    31    18    32    1
    32    18    33    1
    33    18    41    1
    34    19    34    1
    35    19    35    1
    36    20    21    1
    37    20    36    1
    38    20    37    1
    39    20    41    1
    40    21    22    1
    41    21    38    1
    42    21    39    1
    43    22    40    1
    44    41    42    1
