@<TRIPOS>MOLECULE
ZINC03830983
 45 46 0 0 0
SMALL
GASTEIGER

@<TRIPOS>ATOM
      1 C           3.5544    3.4157   -1.8893 C.3     1  UNL1        0.0730
      2 C           3.2610    3.0344   -0.4369 C.3     1  UNL1        0.1130
      3 H           2.2609    3.3735   -0.1668 H       1  UNL1        0.0647
      4 C           3.3437    1.5136   -0.2817 C.3     1  UNL1        0.1119
      5 H           4.3303    1.1681   -0.5905 H       1  UNL1        0.0647
      6 C           3.1085    1.1445    1.1862 C.3     1  UNL1        0.1141
      7 H           3.2198    0.0677    1.3138 H       1  UNL1        0.0648
      8 C           4.1366    1.8744    2.0559 C.3     1  UNL1        0.1341
      9 H           5.1397    1.5372    1.7947 H       1  UNL1        0.0671
     10 C           4.0233    3.3813    1.8104 C.3     1  UNL1        0.1884
     11 H           4.7814    3.9028    2.3946 H       1  UNL1        0.0938
     12 O           4.2219    3.6525    0.4215 O.3     1  UNL1       -0.3405
     13 O           2.7253    3.8318    2.2033 O.3     1  UNL1       -0.3401
     14 C           2.6013    5.2535    2.2774 C.3     1  UNL1        0.1184
     15 H           3.3804    5.7190    1.6737 H       1  UNL1        0.0651
     16 C           2.7444    5.7043    3.7334 C.3     1  UNL1        0.1134
     17 H           2.6902    6.7918    3.7842 H       1  UNL1        0.0647
     18 O           1.6862    5.1375    4.5111 O.3     1  UNL1       -0.3407
     19 C           0.3780    5.5348    4.0952 C.3     1  UNL1        0.1854
     20 H           0.2929    6.6201    4.1508 H       1  UNL1        0.0935
     21 C           0.1415    5.0773    2.6535 C.3     1  UNL1        0.1339
     22 H          -0.8386    5.4178    2.3195 H       1  UNL1        0.0671
     23 C           1.2258    5.6754    1.7519 C.3     1  UNL1        0.1144
     24 H           1.1494    6.7627    1.7618 H       1  UNL1        0.0648
     25 O           1.0561    5.1948    0.4169 O.3     1  UNL1       -0.3864
     26 O           0.2003    3.6510    2.5894 O.3     1  UNL1       -0.3841
     27 O          -0.5967    4.9357    4.9513 O.3     1  UNL1       -0.3649
     28 C           4.0927    5.2342    4.2830 C.3     1  UNL1        0.0730
     29 O           4.2767    5.7532    5.6016 O.3     1  UNL1       -0.3924
     30 O           3.8821    1.5934    3.4337 O.3     1  UNL1       -0.3841
     31 O           1.7901    1.5378    1.5727 O.3     1  UNL1       -0.3864
     32 O           2.3450    0.8954   -1.0955 O.3     1  UNL1       -0.3865
     33 O           3.3704    4.8226   -2.0589 O.3     1  UNL1       -0.3924
     34 H           4.5834    3.1518   -2.1335 H       1  UNL1        0.0584
     35 H           2.8747    2.8781   -2.5505 H       1  UNL1        0.0584
     36 H           0.2063    5.4294    0.0194 H       1  UNL1        0.2100
     37 H          -0.4598    3.2051    3.1375 H       1  UNL1        0.2101
     38 H          -0.5071    5.1818    5.8821 H       1  UNL1        0.2126
     39 H           4.1120    4.1448    4.3153 H       1  UNL1        0.0584
     40 H           4.8936    5.5927    3.6363 H       1  UNL1        0.0584
     41 H           5.1129    5.4947    6.0129 H       1  UNL1        0.2095
     42 H           4.4970    2.0243    4.0431 H       1  UNL1        0.2101
     43 H           1.5726    1.3339    2.4925 H       1  UNL1        0.2100
     44 H           2.3365   -0.0701   -1.0424 H       1  UNL1        0.2100
     45 H           3.5396    5.1359   -2.9580 H       1  UNL1        0.2095
@<TRIPOS>BOND
     1     1     2    1
     2     1    33    1
     3     1    34    1
     4     1    35    1
     5     2     3    1
     6     2    12    1
     7     2     4    1
     8     4     5    1
     9     4     6    1
    10     4    32    1
    11     6     7    1
    12     6     8    1
    13     6    31    1
    14     8     9    1
    15     8    10    1
    16     8    30    1
    17    10    11    1
    18    10    12    1
    19    10    13    1
    20    13    14    1
    21    14    15    1
    22    14    23    1
    23    14    16    1
    24    16    17    1
    25    16    18    1
    26    16    28    1
    27    18    19    1
    28    19    20    1
    29    19    21    1
    30    19    27    1
    31    21    22    1
    32    21    23    1
    33    21    26    1
    34    23    24    1
    35    23    25    1
    36    25    36    1
    37    26    37    1
    38    27    38    1
    39    28    29    1
    40    28    39    1
    41    28    40    1
    42    29    41    1
    43    30    42    1
    44    31    43    1
    45    32    44    1
    46    33    45    1
