@<TRIPOS>MOLECULE
ZINC08101139
 75 77 0 0 0
SMALL
GASTEIGER

@<TRIPOS>ATOM
      1 C          -7.6907    2.2506   -3.7407 C.3     1  UNL1        0.0381
      2 C          -7.8873    1.1761   -4.8120 C.3     1  UNL1        0.0104
      3 H          -8.2618    0.2640   -4.3473 H       1  UNL1        0.0878
      4 C          -6.5496    0.8875   -5.4964 C.3     1  UNL1        0.1326
      5 H          -6.6896    0.1220   -6.2595 H       1  UNL1        0.0681
      6 C          -5.5412    0.3933   -4.4572 C.3     1  UNL1        0.1181
      7 H          -4.5883    0.1878   -4.9448 H       1  UNL1        0.0649
      8 C          -5.3447    1.4679   -3.3860 C.3     1  UNL1        0.1325
      9 H          -4.9701    2.3800   -3.8506 H       1  UNL1        0.0681
     10 C          -6.6823    1.7564   -2.7016 C.3     1  UNL1        0.0104
     11 H          -6.5423    2.5219   -1.9384 H       1  UNL1        0.0878
     12 O          -4.4029    1.0063   -2.4154 O.3     1  UNL1       -0.3371
     13 C          -3.0462    1.3367   -2.7191 C.3     1  UNL1        0.1915
     14 H          -2.8221    1.0457   -3.7453 H       1  UNL1        0.0939
     15 C          -2.1122    0.5899   -1.7630 C.3     1  UNL1        0.1506
     16 H          -2.2244   -0.4847   -1.9073 H       1  UNL1        0.0702
     17 C          -0.6645    0.9971   -2.0542 C.3     1  UNL1        0.0360
     18 H          -0.3966    0.6927   -3.0659 H       1  UNL1        0.0904
     19 C          -0.5359    2.5180   -1.9256 C.3     1  UNL1        0.1283
     20 H           0.4782    2.8211   -2.1861 H       1  UNL1        0.0678
     21 C          -1.5305    3.1887   -2.8767 C.3     1  UNL1        0.1159
     22 H          -1.2866    2.9219   -3.9050 H       1  UNL1        0.0648
     23 O          -2.8539    2.7449   -2.5703 O.3     1  UNL1       -0.3403
     24 C          -1.4502    4.7076   -2.7109 C.3     1  UNL1        0.0731
     25 O          -2.2924    5.3375   -3.6784 O.3     1  UNL1       -0.3924
     26 O          -0.8222    2.9095   -0.5814 O.3     1  UNL1       -0.3834
     27 O          -2.4416    0.9288   -0.4144 O.3     1  UNL1       -0.3812
     28 O          -6.0323   -0.8024   -3.8481 O.3     1  UNL1       -0.3862
     29 O          -6.0586    2.0833   -6.1055 O.3     1  UNL1       -0.3347
     30 C          -5.2626    1.8575   -7.2706 C.3     1  UNL1        0.2061
     31 H          -4.4986    1.1120   -7.0500 H       1  UNL1        0.0970
     32 C          -4.5916    3.1673   -7.6923 C.3     1  UNL1        0.0568
     33 H          -3.9222    3.5048   -6.9010 H       1  UNL1        0.0927
     34 C          -3.7890    2.9308   -8.9753 C.3     1  UNL1        0.1305
     35 H          -2.9951    2.2096   -8.7811 H       1  UNL1        0.0679
     36 C          -4.7255    2.3831  -10.0567 C.3     1  UNL1        0.1176
     37 H          -4.1520    2.1598  -10.9563 H       1  UNL1        0.0649
     38 C          -5.3914    1.1035   -9.5437 C.3     1  UNL1        0.1296
     39 H          -4.6290    0.3483   -9.3530 H       1  UNL1        0.0678
     40 O          -6.0950    1.3869   -8.3326 O.3     1  UNL1       -0.3351
     41 C          -6.3738    0.5827  -10.5947 C.3     1  UNL1       -0.0058
     42 O          -5.7284    3.3552  -10.3587 O.3     1  UNL1       -0.3862
     43 O          -3.2173    4.1635   -9.4177 O.3     1  UNL1       -0.3834
     44 H          -8.6437    2.4561   -3.2531 H       1  UNL1        0.0377
     45 H          -7.3162    3.1627   -4.2054 H       1  UNL1        0.0377
     46 H          -6.5821    0.2288   -1.3251 H       1  UNL1        0.1998
     47 H          -8.1340    0.6501   -1.7491 H       1  UNL1        0.1998
     48 H          -1.7800    4.9816   -1.7088 H       1  UNL1        0.0584
     49 H          -0.4209    5.0351   -2.8570 H       1  UNL1        0.0584
     50 H          -2.2909    6.3034   -3.6317 H       1  UNL1        0.2095
     51 H          -0.7595    3.8621   -0.4274 H       1  UNL1        0.2102
     52 H           0.1632   -0.6597   -1.1551 H       1  UNL1        0.1999
     53 H           1.1855    0.6504   -1.2202 H       1  UNL1        0.1999
     54 H          -3.3458    0.6986   -0.1607 H       1  UNL1        0.2103
     55 H          -5.4426   -1.1729   -3.1772 H       1  UNL1        0.2100
     56 H          -7.1360    1.3382  -10.7856 H       1  UNL1        0.0840
     57 H          -5.8370    0.3666  -11.5184 H       1  UNL1        0.0840
     58 H          -7.4638   -0.4853   -9.2127 H       1  UNL1        0.1995
     59 H          -7.6674   -1.0083  -10.7782 H       1  UNL1        0.1995
     60 H          -5.3769    4.1931  -10.6897 H       1  UNL1        0.2100
     61 H          -2.6996    4.0875  -10.2309 H       1  UNL1        0.2102
     62 H          -6.1650    4.3583   -7.1058 H       1  UNL1        0.2000
     63 H          -5.2049    5.0430   -8.2785 H       1  UNL1        0.2000
     64 H          -9.7478    1.8482   -5.3821 H       1  UNL1        0.1998
     65 H          -8.5026    2.4587   -6.3001 H       1  UNL1        0.1998
     66 N          -7.1860    0.5114   -2.0951 N.4     1  UNL1        0.2228
     67 H          -7.1936   -0.2306   -2.8047 H       1  UNL1        0.1998
     68 N           0.2228    0.3536   -1.0694 N.4     1  UNL1        0.2246
     69 H          -0.0679    0.6275   -0.1235 H       1  UNL1        0.1999
     70 N          -6.9931   -0.6593  -10.0992 N.4     1  UNL1        0.2204
     71 H          -6.2631   -1.3672   -9.9576 H       1  UNL1        0.1995
     72 N          -5.6323    4.1768   -7.9549 N.4     1  UNL1        0.2263
     73 H          -6.2680    3.8254   -8.6806 H       1  UNL1        0.2000
     74 N          -8.8566    1.6302   -5.8247 N.4     1  UNL1        0.2228
     75 H          -8.9989    0.8832   -6.5146 H       1  UNL1        0.1998
@<TRIPOS>UNITY_ATOM_ATTR
66 1
charge 1
68 1
charge 1
70 1
charge 1
72 1
charge 1
74 1
charge 1
@<TRIPOS>BOND
     1     1    10    1
     2     1     2    1
     3     1    44    1
     4     1    45    1
     5     2     3    1
     6     2     4    1
     7     2    74    1
     8     4     5    1
     9     4     6    1
    10     4    29    1
    11     6     7    1
    12     6     8    1
    13     6    28    1
    14     8     9    1
    15     8    10    1
    16     8    12    1
    17    10    11    1
    18    10    66    1
    19    12    13    1
    20    13    14    1
    21    13    23    1
    22    13    15    1
    23    15    16    1
    24    15    17    1
    25    15    27    1
    26    17    18    1
    27    17    19    1
    28    17    68    1
    29    19    20    1
    30    19    21    1
    31    19    26    1
    32    21    22    1
    33    21    23    1
    34    21    24    1
    35    24    25    1
    36    24    48    1
    37    24    49    1
    38    25    50    1
    39    26    51    1
    40    27    54    1
    41    28    55    1
    42    29    30    1
    43    30    31    1
    44    30    40    1
    45    30    32    1
    46    32    33    1
    47    32    34    1
    48    32    72    1
    49    34    35    1
    50    34    36    1
    51    34    43    1
    52    36    37    1
    53    36    38    1
    54    36    42    1
    55    38    39    1
    56    38    40    1
    57    38    41    1
    58    41    56    1
    59    41    57    1
    60    41    70    1
    61    42    60    1
    62    43    61    1
    63    46    66    1
    64    47    66    1
    65    52    68    1
    66    53    68    1
    67    58    70    1
    68    59    70    1
    69    62    72    1
    70    63    72    1
    71    64    74    1
    72    65    74    1
    73    66    67    1
    74    68    69    1
    75    70    71    1
    76    72    73    1
    77    74    75    1
