@<TRIPOS>MOLECULE
ZINC00621893
 56 58 0 0 0
SMALL
GASTEIGER

@<TRIPOS>ATOM
      1 C          -2.8546    2.6486   -2.2191 C.3     1  UNL1        0.0333
      2 C          -2.0518    2.1554   -1.0429 C.2     1  UNL1        0.3047
      3 O          -2.6002    1.9246    0.0087 O.2     1  UNL1       -0.2511
      4 O          -0.7275    1.9726   -1.1636 O.3     1  UNL1       -0.4506
      5 C          -0.0183    1.4957    0.0103 C.3     1  UNL1        0.1947
      6 H          -0.5337    1.8441    0.9052 H       1  UNL1        0.0848
      7 C           1.4156    2.0533   -0.0004 C.3     1  UNL1        0.0805
      8 H           1.4121    3.0913    0.3323 H       1  UNL1        0.0506
      9 S           2.4035    1.0379    1.1476 S.3     1  UNL1       -0.1111
     10 C           1.3135    0.7966    2.5132 C.ar    1  UNL1        0.0300
     11 C           1.5356    1.4451    3.7171 C.ar    1  UNL1       -0.0465
     12 C           0.6703    1.2362    4.7762 C.ar    1  UNL1       -0.0606
     13 C          -0.4110    0.3856    4.6355 C.ar    1  UNL1       -0.0599
     14 C          -0.6384   -0.2632    3.4348 C.ar    1  UNL1       -0.0392
     15 C           0.2232   -0.0587    2.3698 C.ar    1  UNL1        0.0500
     16 N           0.0104   -0.7050    1.1425 N.am    1  UNL1       -0.2622
     17 C           0.0021   -0.0041    0.0020 C.2     1  UNL1        0.2623
     18 O           0.0115   -0.5931   -1.0583 O.2     1  UNL1       -0.2711
     19 C          -0.2041   -2.1539    1.1092 C.3     1  UNL1        0.0600
     20 C           1.1421   -2.8655    0.9599 C.3     1  UNL1       -0.0158
     21 C           0.1871   -4.7133   -0.2796 C.3     1  UNL1       -0.0433
     22 C           2.2019   -5.0416    1.0225 C.3     1  UNL1       -0.0433
     23 C           1.9907    1.9615   -1.3903 C.ar    1  UNL1       -0.0299
     24 C           2.1176    0.7293   -2.0047 C.ar    1  UNL1       -0.0539
     25 C           2.6393    0.6431   -3.2810 C.ar    1  UNL1       -0.0197
     26 C           3.0469    1.7929   -3.9416 C.ar    1  UNL1        0.1201
     27 C           2.9238    3.0274   -3.3208 C.ar    1  UNL1       -0.0197
     28 C           2.3959    3.1089   -2.0468 C.ar    1  UNL1       -0.0539
     29 O           3.5664    1.7100   -5.1947 O.3     1  UNL1       -0.4951
     30 C           3.6633    0.4063   -5.7719 C.3     1  UNL1        0.0788
     31 H          -2.1935    2.7999   -3.0724 H       1  UNL1        0.0342
     32 H          -3.6150    1.9107   -2.4750 H       1  UNL1        0.0342
     33 H          -3.3360    3.5917   -1.9606 H       1  UNL1        0.0342
     34 H           2.3796    2.1096    3.8284 H       1  UNL1        0.0629
     35 H           0.8401    1.7392    5.7168 H       1  UNL1        0.0618
     36 H          -1.0815    0.2270    5.4671 H       1  UNL1        0.0618
     37 H          -1.4840   -0.9265    3.3285 H       1  UNL1        0.0636
     38 H          -0.6823   -2.4717    2.0357 H       1  UNL1        0.0521
     39 H          -0.8446   -2.4070    0.2644 H       1  UNL1        0.0521
     40 H           1.6202   -2.5476    0.0334 H       1  UNL1        0.0830
     41 H           1.7826   -2.6123    1.8047 H       1  UNL1        0.0830
     42 H           0.7535   -4.4234   -1.1646 H       1  UNL1        0.0777
     43 H           0.0416   -5.7935   -0.2790 H       1  UNL1        0.0777
     44 H          -0.7828   -4.2160   -0.2900 H       1  UNL1        0.0777
     45 H           2.6967   -4.7830    1.9586 H       1  UNL1        0.0777
     46 H           2.0136   -6.1149    0.9955 H       1  UNL1        0.0777
     47 H           2.8413   -4.7636    0.1847 H       1  UNL1        0.0777
     48 H           1.8049   -0.1660   -1.4880 H       1  UNL1        0.0622
     49 H           2.7338   -0.3191   -3.7623 H       1  UNL1        0.0654
     50 H           3.2401    3.9240   -3.8331 H       1  UNL1        0.0654
     51 H           2.2998    4.0698   -1.5631 H       1  UNL1        0.0622
     52 H           4.3009   -0.2206   -5.1484 H       1  UNL1        0.0660
     53 H           2.6697   -0.0371   -5.8368 H       1  UNL1        0.0660
     54 H           4.0934    0.4822   -6.7706 H       1  UNL1        0.0660
     55 N           0.9110   -4.3253    0.9493 N.4     1  UNL1        0.2320
     56 H           0.3422   -4.5789    1.7656 H       1  UNL1        0.2028
@<TRIPOS>UNITY_ATOM_ATTR
55 1
charge 1
@<TRIPOS>BOND
     1     1     2    1
     2     1    31    1
     3     1    32    1
     4     1    33    1
     5     2     3    2
     6     2     4    1
     7     4     5    1
     8     5     6    1
     9     5    17    1
    10     5     7    1
    11     7     8    1
    12     7     9    1
    13     7    23    1
    14     9    10    1
    15    10    15   ar
    16    10    11   ar
    17    11    12   ar
    18    11    34    1
    19    12    13   ar
    20    12    35    1
    21    13    14   ar
    22    13    36    1
    23    14    15   ar
    24    14    37    1
    25    15    16    1
    26    16    17   am
    27    16    19    1
    28    17    18    2
    29    19    20    1
    30    19    38    1
    31    19    39    1
    32    20    40    1
    33    20    41    1
    34    20    55    1
    35    21    42    1
    36    21    43    1
    37    21    44    1
    38    21    55    1
    39    22    45    1
    40    22    46    1
    41    22    47    1
    42    22    55    1
    43    23    28   ar
    44    23    24   ar
    45    24    25   ar
    46    24    48    1
    47    25    26   ar
    48    25    49    1
    49    26    27   ar
    50    26    29    1
    51    27    28   ar
    52    27    50    1
    53    28    51    1
    54    29    30    1
    55    30    52    1
    56    30    53    1
    57    30    54    1
    58    55    56    1
