@<TRIPOS>MOLECULE
ZINC00001227
 46 49 0 0 0
SMALL
GASTEIGER

@<TRIPOS>ATOM
      1 C          -2.8937    3.1177   -0.0154 C.3     1  UNL1       -0.0565
      2 C          -2.8768    1.5893    0.0525 C.3     1  UNL1        0.0091
      3 H          -3.8978    1.2117    0.1080 H       1  UNL1        0.0361
      4 C          -2.0918    1.1364    1.2833 C.3     1  UNL1       -0.0134
      5 H          -2.5317    1.6199    2.1555 H       1  UNL1        0.0857
      6 C          -2.2341   -0.3650    1.4630 C.3     1  UNL1        0.0161
      7 C          -2.0782   -1.1066    0.1627 C.ar    1  UNL1       -0.0381
      8 C          -1.9486   -2.4901    0.2219 C.ar    1  UNL1       -0.0547
      9 C          -1.8202   -3.2332   -0.9314 C.ar    1  UNL1       -0.0199
     10 C          -1.8195   -2.5983   -2.1652 C.ar    1  UNL1        0.1172
     11 C          -1.9424   -1.2201   -2.2247 C.ar    1  UNL1       -0.0162
     12 C          -2.0666   -0.4766   -1.0607 C.ar    1  UNL1       -0.0340
     13 C          -2.1833    1.0241   -1.1915 C.3     1  UNL1        0.0058
     14 C          -0.7540    1.5935   -1.2339 C.3     1  UNL1       -0.0027
     15 C          -0.0127    1.0858    0.0080 C.3     1  UNL1       -0.0308
     16 C           0.0320    1.1619    2.4253 C.3     1  UNL1       -0.0287
     17 C           1.3802    1.8839    2.4669 C.3     1  UNL1       -0.0007
     18 C           2.6442    1.0245    2.3978 C.3     1  UNL1       -0.0450
     19 C           2.2452    1.6939    3.7145 C.3     1  UNL1       -0.0450
     20 C          -2.9484    1.3951   -2.4635 C.3     1  UNL1       -0.0549
     21 O          -1.6985   -3.3241   -3.3078 O.3     1  UNL1       -0.5068
     22 H          -3.4350    3.4358   -0.9064 H       1  UNL1        0.0235
     23 H          -3.3878    3.5153    0.8711 H       1  UNL1        0.0235
     24 H          -1.8705    3.4908   -0.0592 H       1  UNL1        0.0235
     25 H          -3.2188   -0.5804    1.8779 H       1  UNL1        0.0368
     26 H          -1.4723   -0.7107    2.1617 H       1  UNL1        0.0368
     27 H          -1.9482   -2.9866    1.1810 H       1  UNL1        0.0622
     28 H          -1.7200   -4.3071   -0.8751 H       1  UNL1        0.0654
     29 H          -1.9416   -0.7217   -3.1828 H       1  UNL1        0.0657
     30 H          -0.7899    2.6829   -1.2231 H       1  UNL1        0.0325
     31 H          -0.2455    1.2488   -2.1343 H       1  UNL1        0.0325
     32 H           0.0021   -0.0041    0.0020 H       1  UNL1        0.0815
     33 H           1.0099    1.4631    0.0003 H       1  UNL1        0.0815
     34 H          -0.5513    1.4305    3.3061 H       1  UNL1        0.0817
     35 H           0.1970    0.0845    2.4135 H       1  UNL1        0.0817
     36 H           1.4067    2.8586    1.9798 H       1  UNL1        0.0352
     37 H           2.5152   -0.0552    2.3228 H       1  UNL1        0.0270
     38 H           3.5026    1.4338    1.8650 H       1  UNL1        0.0270
     39 H           2.8411    2.5435    4.0480 H       1  UNL1        0.0270
     40 H           1.8536    1.0548    4.5059 H       1  UNL1        0.0270
     41 H          -2.4308    0.9861   -3.3312 H       1  UNL1        0.0238
     42 H          -3.9564    0.9833   -2.4142 H       1  UNL1        0.0238
     43 H          -3.0030    2.4802   -2.5511 H       1  UNL1        0.0238
     44 H          -2.5422   -3.6147   -3.6804 H       1  UNL1        0.2921
     45 N          -0.6906    1.6016    1.2236 N.4     1  UNL1        0.2380
     46 H          -0.6863    2.6278    1.1910 H       1  UNL1        0.2036
@<TRIPOS>UNITY_ATOM_ATTR
45 1
charge 1
@<TRIPOS>BOND
     1     1     2    1
     2     1    22    1
     3     1    23    1
     4     1    24    1
     5     2     3    1
     6     2    13    1
     7     2     4    1
     8     4     5    1
     9     4     6    1
    10     4    45    1
    11     6     7    1
    12     6    25    1
    13     6    26    1
    14     7    12   ar
    15     7     8   ar
    16     8     9   ar
    17     8    27    1
    18     9    10   ar
    19     9    28    1
    20    10    11   ar
    21    10    21    1
    22    11    12   ar
    23    11    29    1
    24    12    13    1
    25    13    14    1
    26    13    20    1
    27    14    15    1
    28    14    30    1
    29    14    31    1
    30    15    32    1
    31    15    33    1
    32    15    45    1
    33    16    17    1
    34    16    34    1
    35    16    35    1
    36    16    45    1
    37    17    19    1
    38    17    18    1
    39    17    36    1
    40    18    19    1
    41    18    37    1
    42    18    38    1
    43    19    39    1
    44    19    40    1
    45    20    41    1
    46    20    42    1
    47    20    43    1
    48    21    44    1
    49    45    46    1
