@<TRIPOS>MOLECULE
ZINC03830474
 39 42 0 0 0
SMALL
GASTEIGER

@<TRIPOS>ATOM
      1 C           3.5829    9.8954   -3.8724 C.ar    1  UNL1        0.1386
      2 N           2.9295   11.0081   -4.1026 N.ar    1  UNL1       -0.1169
      3 N           1.6696   10.7578   -4.0018 N.ar    1  UNL1       -0.0233
      4 N           1.5023    9.5132   -3.7185 N.ar    1  UNL1       -0.0437
      5 N           2.6584    8.9468   -3.6335 N.ar    1  UNL1       -0.2232
      6 C           2.9166    7.5374   -3.3282 C.3     1  UNL1        0.1209
      7 C           2.2436    7.1733   -2.0299 C.2     1  UNL1        0.2353
      8 O           1.6107    8.0087   -1.4198 O.2     1  UNL1       -0.2738
      9 N           2.3452    5.9191   -1.5469 N.am    1  UNL1       -0.3002
     10 CA          1.6910    5.5651   -0.2848 C.3     1  UNL1        0.1284
     11 HA          1.4749    6.4260    0.3479 H       1  UNL1        0.0622
     12 C           2.3250    4.3938    0.4440 C.3     1  UNL1        0.1041
     13 H           2.3455    4.4925    1.5293 H       1  UNL1        0.0644
     14 N           1.2446    3.5148   -0.0853 N.am    1  UNL1       -0.2533
     15 C           0.5454    4.5902   -0.4259 C.2     1  UNL1        0.2438
     16 O          -0.6160    4.7394   -0.7425 O.2     1  UNL1       -0.2731
     17 CA          1.2587    2.1180   -0.1820 C.2     1  UNL1        0.0607
     18 C           2.4010    1.4505   -0.1080 C.2     1  UNL1       -0.0264
     19 C           3.7662    1.9855    0.1470 C.3     1  UNL1        0.0195
     20 S           3.8805    3.7542   -0.2650 S.3     1  UNL1       -0.1311
     21 C           2.3033   -0.0441   -0.2746 C.3     1  UNL1        0.0242
     22 S           2.7970   -0.4973   -1.9560 S.3     1  UNL1       -0.0925
     23 C           2.5939   -2.2456   -1.8738 C.ar    1  UNL1        0.1585
     24 N           2.1930   -3.0124   -0.8676 N.ar    1  UNL1       -0.1350
     25 N           2.1031   -4.2652   -0.9819 N.ar    1  UNL1       -0.1489
     26 C           2.3999   -4.8913   -2.1025 C.ar    1  UNL1        0.0895
     27 S           2.8615   -3.4969   -3.1264 S.2     1  UNL1       -0.0476
     28 C          -0.0072    1.3842   -0.3612 C.2     1  UNL1        0.0860
     29 O          -0.4514    1.2028   -1.4776 O.co2   1  UNL1       -0.5433
     30 H           4.6550    9.7646   -3.8762 H       1  UNL1        0.1063
     31 H           3.9908    7.3760   -3.2385 H       1  UNL1        0.0606
     32 H           2.5211    6.9137   -4.1299 H       1  UNL1        0.0606
     33 H           2.8514    5.2509   -2.0349 H       1  UNL1        0.1496
     34 H           4.4742    1.4314   -0.4692 H       1  UNL1        0.0423
     35 H           4.0268    1.8484    1.1965 H       1  UNL1        0.0423
     36 H           2.9629   -0.5335    0.4421 H       1  UNL1        0.0427
     37 H           1.2758   -0.3629   -0.0993 H       1  UNL1        0.0427
     38 H           2.3691   -5.9449   -2.3379 H       1  UNL1        0.0927
     39 OXT        -0.6690    0.9098    0.7127 O.co2   1  UNL1       -0.5433
@<TRIPOS>UNITY_ATOM_ATTR
39 1
charge -1
@<TRIPOS>BOND
     1     1     5   ar
     2     1     2   ar
     3     1    30    1
     4     2     3   ar
     5     3     4   ar
     6     4     5   ar
     7     5     6    1
     8     6     7    1
     9     6    31    1
    10     6    32    1
    11     7     8    2
    12     7     9   am
    13     9    10    1
    14     9    33    1
    15    10    11    1
    16    10    15    1
    17    10    12    1
    18    12    13    1
    19    12    20    1
    20    12    14    1
    21    14    15   am
    22    14    17    1
    23    15    16    2
    24    17    18    2
    25    17    28    1
    26    18    19    1
    27    18    21    1
    28    19    20    1
    29    19    34    1
    30    19    35    1
    31    21    22    1
    32    21    36    1
    33    21    37    1
    34    22    23    1
    35    23    27   ar
    36    23    24   ar
    37    24    25   ar
    38    25    26   ar
    39    26    27   ar
    40    26    38    1
    41    28    29   ar
    42    28    39   ar
