@<TRIPOS>MOLECULE
ZINC00155896
 49 50 0 0 0
SMALL
GASTEIGER

@<TRIPOS>ATOM
      1 C          -2.9688   -0.0131   -2.7600 C.3     1  UNL1       -0.0650
      2 C          -2.4469    0.3142   -1.3595 C.3     1  UNL1       -0.0523
      3 C          -2.0802    1.7978   -1.2857 C.3     1  UNL1       -0.0271
      4 H          -1.3675    2.0356   -2.0754 H       1  UNL1        0.0309
      5 C          -3.3419    2.6445   -1.4653 C.3     1  UNL1       -0.0614
      6 C          -1.4523    2.1008    0.0762 C.3     1  UNL1        0.0840
      7 H          -2.1816    1.9093    0.8633 H       1  UNL1        0.0465
      8 C          -1.0296    3.5466    0.1240 C.ar    1  UNL1       -0.0334
      9 C          -0.1007    4.0254   -0.7808 C.ar    1  UNL1       -0.0578
     10 C           0.2837    5.3526   -0.7398 C.ar    1  UNL1       -0.0615
     11 C          -0.2537    6.1987    0.2121 C.ar    1  UNL1       -0.0617
     12 C          -1.1791    5.7187    1.1200 C.ar    1  UNL1       -0.0615
     13 C          -1.5667    4.3926    1.0762 C.ar    1  UNL1       -0.0578
     14 C          -0.2481    1.2184    0.2817 C.2     1  UNL1        0.3151
     15 O           0.4581    0.9321   -0.6560 O.2     1  UNL1       -0.2501
     16 O           0.0368    0.7459    1.5053 O.3     1  UNL1       -0.4605
     17 C           1.2084   -0.1030    1.6279 C.3     1  UNL1        0.1127
     18 C           0.8048   -1.5653    1.4199 C.3     1  UNL1        0.0248
     19 C           2.0316   -2.4600    1.6104 C.3     1  UNL1       -0.0287
     20 C           3.0104   -0.8842    3.1695 C.3     1  UNL1       -0.0287
     21 C           1.8127    0.0577    3.0256 C.3     1  UNL1        0.0248
     22 C           3.6663   -3.2137    3.2292 C.3     1  UNL1       -0.0431
     23 H          -2.1960    0.2072   -3.4964 H       1  UNL1        0.0230
     24 H          -3.2300   -1.0701   -2.8125 H       1  UNL1        0.0230
     25 H          -3.8522    0.5903   -2.9687 H       1  UNL1        0.0230
     26 H          -1.5635   -0.2892   -1.1507 H       1  UNL1        0.0266
     27 H          -3.2197    0.0939   -0.6230 H       1  UNL1        0.0266
     28 H          -3.7892    2.4286   -2.4356 H       1  UNL1        0.0233
     29 H          -4.0545    2.4067   -0.6756 H       1  UNL1        0.0233
     30 H          -3.0806    3.7014   -1.4128 H       1  UNL1        0.0233
     31 H           0.3223    3.3633   -1.5219 H       1  UNL1        0.0621
     32 H           1.0065    5.7276   -1.4493 H       1  UNL1        0.0618
     33 H           0.0492    7.2348    0.2463 H       1  UNL1        0.0618
     34 H          -1.5989    6.3798    1.8637 H       1  UNL1        0.0618
     35 H          -2.2895    4.0175    1.7857 H       1  UNL1        0.0621
     36 H           1.9454    0.1828    0.8774 H       1  UNL1        0.0737
     37 H           0.0390   -1.8382    2.1460 H       1  UNL1        0.0353
     38 H           0.4131   -1.6947    0.4110 H       1  UNL1        0.0353
     39 H           2.7916   -2.1958    0.8751 H       1  UNL1        0.0815
     40 H           1.7446   -3.5031    1.4770 H       1  UNL1        0.0815
     41 H           3.7657   -0.6273    2.4269 H       1  UNL1        0.0815
     42 H           3.4342   -0.7826    4.1686 H       1  UNL1        0.0815
     43 H           2.1412    1.0878    3.1639 H       1  UNL1        0.0353
     44 H           1.0628   -0.1898    3.7769 H       1  UNL1        0.0353
     45 H           3.9983   -3.1026    4.2614 H       1  UNL1        0.0777
     46 H           3.3146   -4.2328    3.0683 H       1  UNL1        0.0777
     47 H           4.4977   -3.0056    2.5557 H       1  UNL1        0.0777
     48 N           2.5508   -2.2767    2.9826 N.4     1  UNL1        0.2333
     49 H           1.7975   -2.4715    3.6525 H       1  UNL1        0.2030
@<TRIPOS>UNITY_ATOM_ATTR
48 1
charge 1
@<TRIPOS>BOND
     1     1     2    1
     2     1    23    1
     3     1    24    1
     4     1    25    1
     5     2     3    1
     6     2    26    1
     7     2    27    1
     8     3     4    1
     9     3     5    1
    10     3     6    1
    11     5    28    1
    12     5    29    1
    13     5    30    1
    14     6     7    1
    15     6     8    1
    16     6    14    1
    17     8    13   ar
    18     8     9   ar
    19     9    10   ar
    20     9    31    1
    21    10    11   ar
    22    10    32    1
    23    11    12   ar
    24    11    33    1
    25    12    13   ar
    26    12    34    1
    27    13    35    1
    28    14    15    2
    29    14    16    1
    30    16    17    1
    31    17    21    1
    32    17    18    1
    33    17    36    1
    34    18    19    1
    35    18    37    1
    36    18    38    1
    37    19    39    1
    38    19    40    1
    39    19    48    1
    40    20    21    1
    41    20    41    1
    42    20    42    1
    43    20    48    1
    44    21    43    1
    45    21    44    1
    46    22    45    1
    47    22    46    1
    48    22    47    1
    49    22    48    1
    50    48    49    1
