@<TRIPOS>MOLECULE
ZINC00000808
 44 46 0 0 0
SMALL
GASTEIGER

@<TRIPOS>ATOM
      1 C           0.3488    0.9459    0.1177 C.3     1  UNL1       -0.0561
      2 C          -0.5741    1.3430    1.2716 C.3     1  UNL1        0.0124
      3 H          -0.7412    2.4199    1.2491 H       1  UNL1        0.0365
      4 C          -1.9126    0.6160    1.1273 C.3     1  UNL1        0.0247
      5 N          -2.5902    1.0768   -0.0871 N.pl3   1  UNL1       -0.2979
      6 C          -3.4582    2.1710   -0.0076 C.ar    1  UNL1        0.0479
      7 C          -4.2665    2.3474    1.1008 C.ar    1  UNL1       -0.0393
      8 C          -5.1198    3.4347    1.1706 C.ar    1  UNL1       -0.0599
      9 C          -5.1690    4.3534    0.1397 C.ar    1  UNL1       -0.0606
     10 C          -4.3606    4.1910   -0.9738 C.ar    1  UNL1       -0.0462
     11 C          -3.5068    3.1071   -1.0479 C.ar    1  UNL1        0.0341
     12 S          -2.4641    2.8733   -2.4538 S.3     1  UNL1       -0.0857
     13 C          -2.2704    1.1186   -2.4917 C.ar    1  UNL1        0.0341
     14 C          -2.3553    0.4065   -1.2925 C.ar    1  UNL1        0.0479
     15 C          -2.2054   -0.9714   -1.3087 C.ar    1  UNL1       -0.0393
     16 C          -1.9742   -1.6279   -2.5051 C.ar    1  UNL1       -0.0599
     17 C          -1.8909   -0.9187   -3.6881 C.ar    1  UNL1       -0.0606
     18 C          -2.0391    0.4587   -3.6834 C.ar    1  UNL1       -0.0462
     19 C           0.0760    0.9554    2.6013 C.3     1  UNL1       -0.0283
     20 C          -0.3762    0.7945    4.9745 C.3     1  UNL1       -0.0433
     21 C          -0.6659    2.9070    3.8274 C.3     1  UNL1       -0.0433
     22 H           0.4218   -0.1405    0.0682 H       1  UNL1        0.0235
     23 H           1.3395    1.3695    0.2827 H       1  UNL1        0.0235
     24 H          -0.0573    1.3259   -0.8197 H       1  UNL1        0.0235
     25 H          -1.7376   -0.4578    1.0606 H       1  UNL1        0.0472
     26 H          -2.5372    0.8291    1.9949 H       1  UNL1        0.0472
     27 H          -4.2338    1.6336    1.9106 H       1  UNL1        0.0636
     28 H          -5.7517    3.5659    2.0366 H       1  UNL1        0.0618
     29 H          -5.8384    5.1986    0.2017 H       1  UNL1        0.0618
     30 H          -4.3975    4.9086   -1.7801 H       1  UNL1        0.0629
     31 H          -2.2693   -1.5326   -0.3882 H       1  UNL1        0.0636
     32 H          -1.8584   -2.7017   -2.5141 H       1  UNL1        0.0618
     33 H          -1.7104   -1.4388   -4.6173 H       1  UNL1        0.0618
     34 H          -1.9743    1.0142   -4.6073 H       1  UNL1        0.0629
     35 H           0.1603   -0.1296    2.6619 H       1  UNL1        0.0817
     36 H           1.0688    1.4011    2.6638 H       1  UNL1        0.0817
     37 H           0.6693    1.0083    5.1968 H       1  UNL1        0.0777
     38 H          -1.0041    1.1752    5.7800 H       1  UNL1        0.0777
     39 H          -0.5153   -0.2827    4.8835 H       1  UNL1        0.0777
     40 H          -1.0516    3.3665    2.9173 H       1  UNL1        0.0777
     41 H          -1.2570    3.2393    4.6808 H       1  UNL1        0.0777
     42 H           0.3743    3.2001    3.9697 H       1  UNL1        0.0777
     43 N          -0.7786    1.4383    3.7063 N.4     1  UNL1        0.2311
     44 H          -1.7552    1.1943    3.5037 H       1  UNL1        0.2028
@<TRIPOS>UNITY_ATOM_ATTR
43 1
charge 1
@<TRIPOS>BOND
     1     1     2    1
     2     1    22    1
     3     1    23    1
     4     1    24    1
     5     2     3    1
     6     2     4    1
     7     2    19    1
     8     4     5    1
     9     4    25    1
    10     4    26    1
    11     5    14    1
    12     5     6    1
    13     6    11   ar
    14     6     7   ar
    15     7     8   ar
    16     7    27    1
    17     8     9   ar
    18     8    28    1
    19     9    10   ar
    20     9    29    1
    21    10    11   ar
    22    10    30    1
    23    11    12    1
    24    12    13    1
    25    13    18   ar
    26    13    14   ar
    27    14    15   ar
    28    15    16   ar
    29    15    31    1
    30    16    17   ar
    31    16    32    1
    32    17    18   ar
    33    17    33    1
    34    18    34    1
    35    19    35    1
    36    19    36    1
    37    19    43    1
    38    20    37    1
    39    20    38    1
    40    20    39    1
    41    20    43    1
    42    21    40    1
    43    21    41    1
    44    21    42    1
    45    21    43    1
    46    43    44    1
