@<TRIPOS>MOLECULE
ZINC03831369
 59 62 0 0 0
SMALL
GASTEIGER

@<TRIPOS>ATOM
      1 C           2.1102    6.9091    4.4907 C.3     1  UNL1        0.0332
      2 C           1.3712    6.9711    3.1787 C.2     1  UNL1        0.3043
      3 O           1.3337    8.0051    2.5547 O.2     1  UNL1       -0.2512
      4 O           0.7547    5.8776    2.7034 O.3     1  UNL1       -0.4570
      5 C           0.0625    6.0105    1.4339 C.3     1  UNL1        0.1530
      6 C          -0.5642    4.6912    1.0630 C.2     1  UNL1        0.2022
      7 O          -0.4403    3.7373    1.7931 O.2     1  UNL1       -0.2907
      8 C          -1.3456    4.5622   -0.2192 C.3     1  UNL1        0.1326
      9 C          -2.3145    3.3652   -0.1334 C.3     1  UNL1       -0.0161
     10 C          -1.8983    2.3842   -1.2513 C.3     1  UNL1       -0.0463
     11 C          -0.3975    2.7192   -1.5010 C.3     1  UNL1       -0.0292
     12 H          -0.0438    2.3796   -2.4745 H       1  UNL1        0.0310
     13 C          -0.3993    4.2531   -1.3866 C.3     1  UNL1        0.0092
     14 C           0.9835    4.8295   -1.1844 C.3     1  UNL1       -0.0178
     15 C           1.6776    4.1791    0.0106 C.3     1  UNL1        0.0600
     16 H           1.0914    4.3528    0.9130 H       1  UNL1        0.0596
     17 C           1.7903    2.6709   -0.2476 C.3     1  UNL1        0.0007
     18 H           2.3385    2.4793   -1.1700 H       1  UNL1        0.0340
     19 C           0.3859    2.0809   -0.3498 C.3     1  UNL1       -0.0311
     20 H          -0.1506    2.2664    0.5807 H       1  UNL1        0.0308
     21 C           0.4639    0.5711   -0.5954 C.3     1  UNL1       -0.0458
     22 C           1.1397   -0.1159    0.5947 C.3     1  UNL1       -0.0302
     23 C           2.4905    0.5418    0.8072 C.2     1  UNL1       -0.0559
     24 C           3.5742   -0.2189    0.8721 C.2     1  UNL1       -0.0149
     25 C           4.9018    0.3874    1.0580 C.2     1  UNL1        0.1787
     26 O           5.8952   -0.3084    1.1568 O.2     1  UNL1       -0.2879
     27 C           5.0013    1.8553    1.1223 C.2     1  UNL1       -0.0180
     28 C           3.9046    2.5943    1.0605 C.2     1  UNL1       -0.0701
     29 C           2.5289    2.0351    0.9357 C.3     1  UNL1        0.0131
     30 C           1.7544    2.4143    2.1995 C.3     1  UNL1       -0.0520
     31 O           2.9835    4.7373    0.1687 O.3     1  UNL1       -0.3914
     32 C          -0.9949    4.8263   -2.6741 C.3     1  UNL1       -0.0562
     33 O          -2.0710    5.7658   -0.4783 O.3     1  UNL1       -0.3804
     34 H           2.9051    6.1662    4.4252 H       1  UNL1        0.0342
     35 H           2.5424    7.8853    4.7107 H       1  UNL1        0.0342
     36 H           1.4175    6.6311    5.2850 H       1  UNL1        0.0342
     37 H           0.7145    6.2807    0.7255 H       1  UNL1        0.0779
     38 H          -0.7144    6.7700    1.5215 H       1  UNL1        0.0779
     39 H          -3.3390    3.7014   -0.2932 H       1  UNL1        0.0297
     40 H          -2.2275    2.8818    0.8397 H       1  UNL1        0.0297
     41 H          -2.4849    2.5604   -2.1530 H       1  UNL1        0.0269
     42 H          -2.0099    1.3522   -0.9190 H       1  UNL1        0.0269
     43 H           0.9023    5.9025   -1.0108 H       1  UNL1        0.0297
     44 H           1.5782    4.6567   -2.0814 H       1  UNL1        0.0297
     45 H          -0.5427    0.1721   -0.7201 H       1  UNL1        0.0271
     46 H           1.0434    0.3807   -1.4988 H       1  UNL1        0.0271
     47 H           0.5261    0.0050    1.4875 H       1  UNL1        0.0310
     48 H           1.2744   -1.1762    0.3807 H       1  UNL1        0.0310
     49 H           3.4818   -1.2917    0.7884 H       1  UNL1        0.0655
     50 H           5.9673    2.3282    1.2200 H       1  UNL1        0.0653
     51 H           4.0135    3.6679    1.1036 H       1  UNL1        0.0582
     52 H           2.2468    1.9823    3.0707 H       1  UNL1        0.0241
     53 H           1.7283    3.4996    2.2977 H       1  UNL1        0.0241
     54 H           0.7363    2.0312    2.1303 H       1  UNL1        0.0241
     55 H           2.9866    5.6898    0.3352 H       1  UNL1        0.2098
     56 H          -0.3656    4.5499   -3.5201 H       1  UNL1        0.0236
     57 H          -1.9976    4.4249   -2.8207 H       1  UNL1        0.0236
     58 H          -1.0458    5.9125   -2.5987 H       1  UNL1        0.0236
     59 H          -2.6864    6.0133    0.2254 H       1  UNL1        0.2108
@<TRIPOS>BOND
     1     1     2    1
     2     1    34    1
     3     1    35    1
     4     1    36    1
     5     2     3    2
     6     2     4    1
     7     4     5    1
     8     5     6    1
     9     5    37    1
    10     5    38    1
    11     6     7    2
    12     6     8    1
    13     8    13    1
    14     8     9    1
    15     8    33    1
    16     9    10    1
    17     9    39    1
    18     9    40    1
    19    10    11    1
    20    10    41    1
    21    10    42    1
    22    11    12    1
    23    11    19    1
    24    11    13    1
    25    13    14    1
    26    13    32    1
    27    14    15    1
    28    14    43    1
    29    14    44    1
    30    15    16    1
    31    15    17    1
    32    15    31    1
    33    17    18    1
    34    17    29    1
    35    17    19    1
    36    19    20    1
    37    19    21    1
    38    21    22    1
    39    21    45    1
    40    21    46    1
    41    22    23    1
    42    22    47    1
    43    22    48    1
    44    23    29    1
    45    23    24    2
    46    24    25    1
    47    24    49    1
    48    25    26    2
    49    25    27    1
    50    27    28    2
    51    27    50    1
    52    28    29    1
    53    28    51    1
    54    29    30    1
    55    30    52    1
    56    30    53    1
    57    30    54    1
    58    31    55    1
    59    32    56    1
    60    32    57    1
    61    32    58    1
    62    33    59    1
