@<TRIPOS>MOLECULE
ZINC03830491
 57 59 0 0 0
SMALL
GASTEIGER

@<TRIPOS>ATOM
      1 C          -2.9049    7.5454    4.2691 C.3     1  UNL1        0.0100
      2 C          -3.0776    6.0258    4.2230 C.3     1  UNL1        0.2467
      3 H          -3.9705    5.7445    4.7811 H       1  UNL1        0.1204
      4 O          -1.9154    5.3884    4.8158 O.3     1  UNL1       -0.4251
      5 C          -1.9619    4.0554    4.9661 C.2     1  UNL1        0.3068
      6 O          -2.9023    3.4312    4.5350 O.2     1  UNL1       -0.2511
      7 C          -0.8411    3.3373    5.6727 C.3     1  UNL1        0.0333
      8 O          -3.2140    5.5959    2.8428 O.3     1  UNL1       -0.4206
      9 C          -2.2152    5.9220    1.9988 C.2     1  UNL1        0.3567
     10 O          -1.2108    6.4576    2.4241 O.2     1  UNL1       -0.2434
     11 C          -2.3410    5.6287    0.5597 C.2     1  UNL1        0.1255
     12 C          -2.9642    6.4848   -0.2359 C.2     1  UNL1        0.0057
     13 C          -3.1552    6.4076   -1.7155 C.3     1  UNL1        0.0220
     14 S          -2.9129    4.7120   -2.3641 S.3     1  UNL1       -0.1310
     15 C          -1.4625    4.1737   -1.3968 C.3     1  UNL1        0.1042
     16 H          -0.5103    4.5704   -1.7489 H       1  UNL1        0.0644
     17 N          -1.8000    4.4423    0.0375 N.am    1  UNL1       -0.2489
     18 C          -1.5646    3.1821    0.4421 C.2     1  UNL1        0.2440
     19 O          -1.4759    2.6424    1.5247 O.2     1  UNL1       -0.2731
     20 C          -1.4549    2.7026   -0.9953 C.3     1  UNL1        0.1286
     21 H          -2.3285    2.1502   -1.3415 H       1  UNL1        0.0622
     22 N          -0.1939    2.0186   -1.2922 N.am    1  UNL1       -0.2963
     23 C          -0.1785    0.6836   -1.4768 C.2     1  UNL1        0.2699
     24 O          -1.2098    0.0467   -1.3919 O.2     1  UNL1       -0.2683
     25 C           1.0965   -0.0077   -1.7833 C.2     1  UNL1        0.2059
     26 N           2.2037    0.6762   -1.8744 N.2     1  UNL1       -0.0763
     27 O           3.4216    0.0159   -2.1671 O.2     1  UNL1       -0.3964
     28 C           4.5527    0.8865   -2.2367 C.3     1  UNL1        0.1072
     29 C           1.1133   -1.4670   -1.9850 C.ar    1  UNL1        0.1612
     30 C           2.2107   -2.2228   -2.2707 C.ar    1  UNL1       -0.0141
     31 C           1.7687   -3.5541   -2.3781 C.ar    1  UNL1       -0.0232
     32 C           0.4381   -3.5488   -2.1556 C.ar    1  UNL1        0.0926
     33 O           0.0470   -2.2880   -1.9134 O.2     1  UNL1       -0.4611
     34 C          -3.5574    7.6944    0.4393 C.3     1  UNL1        0.1182
     35 O          -3.0485    8.8991   -0.1916 O.3     1  UNL1       -0.4460
     36 C          -3.4019   10.0747    0.3615 C.2     1  UNL1        0.3980
     37 O          -4.1889   10.0986    1.2869 O.2     1  UNL1       -0.2267
     38 N          -2.8826   11.2250   -0.1114 N.am    1  UNL1       -0.2950
     39 H          -2.0611    7.8344    3.6425 H       1  UNL1        0.0301
     40 H          -3.8118    8.0254    3.9014 H       1  UNL1        0.0301
     41 H          -2.7187    7.8588    5.2963 H       1  UNL1        0.0301
     42 H          -1.0601    3.2823    6.7391 H       1  UNL1        0.0342
     43 H          -0.7440    2.3294    5.2693 H       1  UNL1        0.0342
     44 H           0.0914    3.8808    5.5208 H       1  UNL1        0.0342
     45 H          -4.1634    6.7417   -1.9605 H       1  UNL1        0.0424
     46 H          -2.4370    7.0687   -2.2005 H       1  UNL1        0.0424
     47 H           0.6294    2.5271   -1.3600 H       1  UNL1        0.1499
     48 H           4.6824    1.3909   -1.2792 H       1  UNL1        0.0687
     49 H           5.4457    0.3045   -2.4647 H       1  UNL1        0.0687
     50 H           4.3927    1.6281   -3.0194 H       1  UNL1        0.0687
     51 H           3.2238   -1.8683   -2.3911 H       1  UNL1        0.0656
     52 H           2.3794   -4.4175   -2.5973 H       1  UNL1        0.0649
     53 H          -0.2053   -4.4162   -2.1663 H       1  UNL1        0.1029
     54 H          -4.6431    7.6664    0.3465 H       1  UNL1        0.0747
     55 H          -3.2828    7.6929    1.4942 H       1  UNL1        0.0747
     56 H          -2.3115   11.2132   -0.8954 H       1  UNL1        0.1482
     57 H          -3.0799   12.0647    0.3322 H       1  UNL1        0.1482
@<TRIPOS>BOND
     1     1     2    1
     2     1    39    1
     3     1    40    1
     4     1    41    1
     5     2     3    1
     6     2     4    1
     7     2     8    1
     8     4     5    1
     9     5     6    2
    10     5     7    1
    11     7    42    1
    12     7    43    1
    13     7    44    1
    14     8     9    1
    15     9    10    2
    16     9    11    1
    17    11    17    1
    18    11    12    2
    19    12    13    1
    20    12    34    1
    21    13    14    1
    22    13    45    1
    23    13    46    1
    24    14    15    1
    25    15    16    1
    26    15    20    1
    27    15    17    1
    28    17    18   am
    29    18    19    2
    30    18    20    1
    31    20    21    1
    32    20    22    1
    33    22    23   am
    34    22    47    1
    35    23    24    2
    36    23    25    1
    37    25    26    2
    38    25    29    1
    39    26    27    1
    40    27    28    1
    41    28    48    1
    42    28    49    1
    43    28    50    1
    44    29    33   ar
    45    29    30   ar
    46    30    31   ar
    47    30    51    1
    48    31    32   ar
    49    31    52    1
    50    32    33   ar
    51    32    53    1
    52    34    35    1
    53    34    54    1
    54    34    55    1
    55    35    36    1
    56    36    37    2
    57    36    38   am
    58    38    56    1
    59    38    57    1
