@<TRIPOS>MOLECULE
ZINC01530763
 55 56 0 0 0
SMALL
GASTEIGER

@<TRIPOS>ATOM
      1 C           1.8588    2.1062    0.5003 C.3     1  UNL1       -0.0552
      2 C           1.7175    1.2852   -0.7830 C.3     1  UNL1        0.0421
      3 C           0.5556    1.8074   -1.5882 C.2     1  UNL1        0.3077
      4 O          -0.0930    2.7405   -1.1777 O.2     1  UNL1       -0.2508
      5 O           0.2412    1.2359   -2.7613 O.3     1  UNL1       -0.4525
      6 C          -0.9773    1.6877   -3.4091 C.3     1  UNL1        0.1496
      7 C          -1.0592    1.0898   -4.8150 C.3     1  UNL1        0.0172
      8 C          -0.9500   -0.4108   -4.7299 C.ar    1  UNL1       -0.0432
      9 C           0.2803   -1.0032   -4.5147 C.ar    1  UNL1       -0.0584
     10 C           0.3797   -2.3795   -4.4318 C.ar    1  UNL1       -0.0615
     11 C          -0.7495   -3.1639   -4.5746 C.ar    1  UNL1       -0.0617
     12 C          -1.9790   -2.5718   -4.7951 C.ar    1  UNL1       -0.0615
     13 C          -2.0793   -1.1953   -4.8727 C.ar    1  UNL1       -0.0584
     14 C          -0.9685    3.1917   -3.5025 C.ar    1  UNL1       -0.0035
     15 C          -2.1518    3.8789   -3.6993 C.ar    1  UNL1       -0.0548
     16 C          -2.1443    5.2588   -3.7806 C.ar    1  UNL1       -0.0614
     17 C          -0.9524    5.9510   -3.6748 C.ar    1  UNL1       -0.0617
     18 C           0.2314    5.2636   -3.4829 C.ar    1  UNL1       -0.0614
     19 C           0.2234    3.8839   -3.3972 C.ar    1  UNL1       -0.0548
     20 C          -2.1880    1.2345   -2.5908 C.3     1  UNL1        0.0407
     21 H          -3.0819    1.2720   -3.2134 H       1  UNL1        0.0392
     22 C          -1.9662   -0.1984   -2.1025 C.3     1  UNL1       -0.0535
     23 C          -2.3659    2.1618   -1.3869 C.3     1  UNL1       -0.0257
     24 C          -3.7366    2.5575    0.5694 C.3     1  UNL1       -0.0433
     25 C          -4.7790    2.1867   -1.5843 C.3     1  UNL1       -0.0433
     26 H           2.0338    3.1515    0.2455 H       1  UNL1        0.0235
     27 H           0.9439    2.0236    1.0870 H       1  UNL1        0.0235
     28 H           2.6992    1.7285    1.0826 H       1  UNL1        0.0235
     29 H           1.5425    0.2400   -0.5282 H       1  UNL1        0.0375
     30 H           2.6324    1.3678   -1.3698 H       1  UNL1        0.0375
     31 H          -2.0125    1.3595   -5.2695 H       1  UNL1        0.0355
     32 H          -0.2433    1.4795   -5.4237 H       1  UNL1        0.0355
     33 H           1.1633   -0.3906   -4.4075 H       1  UNL1        0.0620
     34 H           1.3404   -2.8421   -4.2599 H       1  UNL1        0.0618
     35 H          -0.6711   -4.2393   -4.5142 H       1  UNL1        0.0618
     36 H          -2.8612   -3.1846   -4.9070 H       1  UNL1        0.0618
     37 H          -3.0398   -0.7327   -5.0454 H       1  UNL1        0.0620
     38 H          -3.0824    3.3378   -3.7860 H       1  UNL1        0.0622
     39 H          -3.0693    5.7959   -3.9303 H       1  UNL1        0.0618
     40 H          -0.9462    7.0289   -3.7418 H       1  UNL1        0.0618
     41 H           1.1626    5.8043   -3.4002 H       1  UNL1        0.0618
     42 H           1.1483    3.3468   -3.2476 H       1  UNL1        0.0622
     43 H          -1.7750   -0.8478   -2.9568 H       1  UNL1        0.0236
     44 H          -1.1105   -0.2240   -1.4279 H       1  UNL1        0.0236
     45 H          -2.8552   -0.5442   -1.5750 H       1  UNL1        0.0236
     46 H          -1.5434    2.0112   -0.6876 H       1  UNL1        0.0818
     47 H          -2.3708    3.1983   -1.7242 H       1  UNL1        0.0818
     48 H          -3.6765    3.6332    0.4044 H       1  UNL1        0.0777
     49 H          -4.6881    2.3152    1.0428 H       1  UNL1        0.0777
     50 H          -2.9182    2.2429    1.2169 H       1  UNL1        0.0777
     51 H          -4.7183    1.6025   -2.5026 H       1  UNL1        0.0777
     52 H          -5.7083    1.9522   -1.0653 H       1  UNL1        0.0777
     53 H          -4.7566    3.2490   -1.8274 H       1  UNL1        0.0777
     54 N          -3.6391    1.8300   -0.7135 N.4     1  UNL1        0.2312
     55 H          -3.6648    0.8206   -0.5273 H       1  UNL1        0.2028
@<TRIPOS>UNITY_ATOM_ATTR
54 1
charge 1
@<TRIPOS>BOND
     1     1     2    1
     2     1    26    1
     3     1    27    1
     4     1    28    1
     5     2     3    1
     6     2    29    1
     7     2    30    1
     8     3     4    2
     9     3     5    1
    10     5     6    1
    11     6     7    1
    12     6    14    1
    13     6    20    1
    14     7     8    1
    15     7    31    1
    16     7    32    1
    17     8    13   ar
    18     8     9   ar
    19     9    10   ar
    20     9    33    1
    21    10    11   ar
    22    10    34    1
    23    11    12   ar
    24    11    35    1
    25    12    13   ar
    26    12    36    1
    27    13    37    1
    28    14    19   ar
    29    14    15   ar
    30    15    16   ar
    31    15    38    1
    32    16    17   ar
    33    16    39    1
    34    17    18   ar
    35    17    40    1
    36    18    19   ar
    37    18    41    1
    38    19    42    1
    39    20    21    1
    40    20    22    1
    41    20    23    1
    42    22    43    1
    43    22    44    1
    44    22    45    1
    45    23    46    1
    46    23    47    1
    47    23    54    1
    48    24    48    1
    49    24    49    1
    50    24    50    1
    51    24    54    1
    52    25    51    1
    53    25    52    1
    54    25    53    1
    55    25    54    1
    56    54    55    1
