@<TRIPOS>MOLECULE
ZINC11616834
 71 75 0 0 0
SMALL
GASTEIGER

@<TRIPOS>ATOM
      1 C          -3.0181    1.1057    0.5653 C.3     1  UNL1       -0.0583
      2 C          -2.0097    0.0678    1.0642 C.3     1  UNL1        0.0042
      3 H          -1.3144    0.5287    1.7627 H       1  UNL1        0.0341
      4 C          -2.7550   -1.1126    1.7473 C.3     1  UNL1       -0.0426
      5 C          -2.6292   -2.2570    0.7284 C.3     1  UNL1       -0.0253
      6 H          -3.3561   -2.0409   -0.0885 H       1  UNL1        0.0311
      7 C          -2.8974   -3.6443    1.2043 C.3     1  UNL1        0.0003
      8 H          -3.9516   -3.8850    0.9358 H       1  UNL1        0.0336
      9 C          -2.7587   -3.9096    2.6992 C.3     1  UNL1       -0.0432
     10 C          -3.4846   -5.2233    3.0025 C.3     1  UNL1       -0.0301
     11 C          -3.5145   -6.1646    1.8250 C.2     1  UNL1       -0.0532
     12 C          -4.4122   -7.1678    1.8874 C.2     1  UNL1       -0.0148
     13 C          -4.5324   -8.1006    0.7460 C.2     1  UNL1        0.1787
     14 O          -5.0267   -9.2170    0.8874 O.2     1  UNL1       -0.2879
     15 C          -4.0365   -7.6487   -0.5723 C.2     1  UNL1       -0.0180
     16 C          -3.1464   -6.6442   -0.6194 C.2     1  UNL1       -0.0674
     17 C          -2.6235   -6.0419    0.6361 C.3     1  UNL1        0.0443
     18 C          -2.0213   -4.6678    0.4808 C.3     1  UNL1        0.1526
     19 C          -1.7497   -4.2175   -0.9399 C.3     1  UNL1        0.0910
     20 H          -1.2385   -5.0167   -1.4888 H       1  UNL1        0.0626
     21 C          -0.8397   -2.9741   -0.9286 C.3     1  UNL1       -0.0141
     22 C          -1.2005   -2.0420    0.1923 C.3     1  UNL1        0.0208
     23 C          -1.2424   -0.5381   -0.1411 C.3     1  UNL1        0.1826
     24 C          -1.9772   -0.2578   -1.4185 C.2     1  UNL1        0.2144
     25 O          -2.8377   -1.0149   -1.7987 O.2     1  UNL1       -0.2895
     26 C          -1.6414    0.9686   -2.2273 C.3     1  UNL1        0.1542
     27 O          -2.5705    1.0860   -3.3369 O.3     1  UNL1       -0.4570
     28 C          -2.4073    2.1334   -4.1603 C.2     1  UNL1        0.3043
     29 O          -1.5174    2.9260   -3.9604 O.2     1  UNL1       -0.2512
     30 C          -3.3338    2.3208   -5.3339 C.3     1  UNL1        0.0332
     31 O           0.1070   -0.0107   -0.1926 O.3     1  UNL1       -0.4438
     32 C           0.8648   -0.3694   -1.2494 C.2     1  UNL1        0.3758
     33 O           0.3776   -1.0198   -2.1543 O.2     1  UNL1       -0.2414
     34 C           2.2759    0.0194   -1.3044 C.ar    1  UNL1        0.2112
     35 C           3.1518   -0.2762   -2.3106 C.ar    1  UNL1       -0.0093
     36 C           4.3846    0.2894   -1.9513 C.ar    1  UNL1       -0.0231
     37 C           4.2103    0.8979   -0.7570 C.ar    1  UNL1        0.0929
     38 O           2.9375    0.7374   -0.3729 O.2     1  UNL1       -0.4564
     39 C          -0.1629   -2.1779    1.3242 C.3     1  UNL1       -0.0551
     40 O          -2.9716   -3.9123   -1.6156 O.3     1  UNL1       -0.3886
     41 F          -0.7942   -4.7534    1.1490 F       1  UNL1       -0.2377
     42 C          -1.4085   -6.9155    0.9966 C.3     1  UNL1       -0.0493
     43 H          -3.6898    0.6416   -0.1569 H       1  UNL1        0.0234
     44 H          -3.5962    1.4849    1.4079 H       1  UNL1        0.0234
     45 H          -2.4861    1.9295    0.0895 H       1  UNL1        0.0234
     46 H          -2.2960   -1.3718    2.6968 H       1  UNL1        0.0272
     47 H          -3.8072   -0.8563    1.8973 H       1  UNL1        0.0272
     48 H          -3.2123   -3.1020    3.2737 H       1  UNL1        0.0272
     49 H          -1.7069   -4.0053    2.9749 H       1  UNL1        0.0272
     50 H          -4.5147   -4.9985    3.2872 H       1  UNL1        0.0310
     51 H          -2.9877   -5.7209    3.8366 H       1  UNL1        0.0310
     52 H          -5.0060   -7.3132    2.7936 H       1  UNL1        0.0656
     53 H          -4.3886   -8.1205   -1.4942 H       1  UNL1        0.0653
     54 H          -2.8051   -6.2859   -1.5954 H       1  UNL1        0.0583
     55 H          -0.8855   -2.4850   -1.9025 H       1  UNL1        0.0298
     56 H           0.2040   -3.3103   -0.7928 H       1  UNL1        0.0298
     57 H          -1.7111    1.7800   -1.6469 H       1  UNL1        0.0780
     58 H          -0.6251    0.8832   -2.6119 H       1  UNL1        0.0780
     59 H          -4.0663    1.5138   -5.3511 H       1  UNL1        0.0342
     60 H          -3.8488    3.2770   -5.2412 H       1  UNL1        0.0342
     61 H          -2.7565    2.3072   -6.2584 H       1  UNL1        0.0342
     62 H           2.9369   -0.8367   -3.2084 H       1  UNL1        0.0657
     63 H           5.3006    0.2463   -2.5217 H       1  UNL1        0.0649
     64 H           4.9714    1.4295   -0.2052 H       1  UNL1        0.1029
     65 H          -0.5435   -1.6975    2.2255 H       1  UNL1        0.0237
     66 H           0.0199   -3.2336    1.5246 H       1  UNL1        0.0237
     67 H           0.7685   -1.6987    1.0226 H       1  UNL1        0.0237
     68 H          -2.8546   -3.6379   -2.5354 H       1  UNL1        0.2099
     69 H          -0.9585   -6.5491    1.9193 H       1  UNL1        0.0242
     70 H          -1.7311   -7.9474    1.1345 H       1  UNL1        0.0242
     71 H          -0.6755   -6.8685    0.1913 H       1  UNL1        0.0242
@<TRIPOS>BOND
     1     1     2    1
     2     1    43    1
     3     1    44    1
     4     1    45    1
     5     2     3    1
     6     2    23    1
     7     2     4    1
     8     4     5    1
     9     4    46    1
    10     4    47    1
    11     5     6    1
    12     5    22    1
    13     5     7    1
    14     7     8    1
    15     7    18    1
    16     7     9    1
    17     9    10    1
    18     9    48    1
    19     9    49    1
    20    10    11    1
    21    10    50    1
    22    10    51    1
    23    11    17    1
    24    11    12    2
    25    12    13    1
    26    12    52    1
    27    13    14    2
    28    13    15    1
    29    15    16    2
    30    15    53    1
    31    16    17    1
    32    16    54    1
    33    17    18    1
    34    17    42    1
    35    18    19    1
    36    18    41    1
    37    19    20    1
    38    19    21    1
    39    19    40    1
    40    21    22    1
    41    21    55    1
    42    21    56    1
    43    22    23    1
    44    22    39    1
    45    23    24    1
    46    23    31    1
    47    24    25    2
    48    24    26    1
    49    26    27    1
    50    26    57    1
    51    26    58    1
    52    27    28    1
    53    28    29    2
    54    28    30    1
    55    30    59    1
    56    30    60    1
    57    30    61    1
    58    31    32    1
    59    32    33    2
    60    32    34    1
    61    34    38   ar
    62    34    35   ar
    63    35    36   ar
    64    35    62    1
    65    36    37   ar
    66    36    63    1
    67    37    38   ar
    68    37    64    1
    69    39    65    1
    70    39    66    1
    71    39    67    1
    72    40    68    1
    73    42    69    1
    74    42    70    1
    75    42    71    1
