@<TRIPOS>MOLECULE
ZINC01532749
 27 26 0 0 0
SMALL
GASTEIGER

@<TRIPOS>ATOM
      1 CG         -1.9576    2.4203   -1.3798 C.3     1  ARG1       -0.0168
      2 CB         -1.5659    2.1529    0.0749 C.3     1  ARG1       -0.0015
      3 CA         -2.5655    2.8407    1.0069 C.3     1  ARG1        0.0161
      4 HA         -2.6225    3.9008    0.7599 H       1  ARG1        0.0914
      5 C          -2.1122    2.6813    2.4352 C.2     1  ARG1        0.0894
      6 O          -2.6119    1.8338    3.1366 O.co2   1  ARG1       -0.5442
      7 CD         -0.9580    1.7324   -2.3118 C.3     1  ARG1        0.0647
      8 NE         -1.3331    1.9884   -3.7046 N.pl3   1  ARG1       -0.2787
      9 CZ         -0.5762    1.4673   -4.7273 C.cat   1  ARG1        0.3410
     10 NH1         0.5327    0.7060   -4.4428 N.pl3   1  ARG1       -0.2919
     11 HG1        -2.9571    2.0269   -1.5651 H       1  ARG1        0.0298
     12 HG2        -1.9494    3.4940   -1.5668 H       1  ARG1        0.0298
     13 HB1        -1.5742    1.0791    0.2619 H       1  ARG1        0.0325
     14 HB2        -0.5664    2.5463    0.2602 H       1  ARG1        0.0325
     15 H1         -3.8638    1.2440    1.0654 H       1  ARG1        0.2001
     16 H2         -4.5820    2.7064    1.3994 H       1  ARG1        0.2001
     17 HD1         0.0415    2.1258   -2.1266 H       1  ARG1        0.0655
     18 HD2        -0.9663    0.6586   -2.1247 H       1  ARG1        0.0655
     19 HE         -2.1155    2.5256   -3.9054 H       1  ARG1        0.2578
     20 HH21       -0.4395    1.3709   -6.7571 H       1  ARG1        0.2545
     21 HH11        0.7810    0.5365   -3.5205 H       1  ARG1        0.2545
     22 HH12        1.0666    0.3383   -5.1642 H       1  ARG1        0.2545
     23 OXT        -1.1535    3.4809    2.9283 O.co2   1  ARG1       -0.5442
     24 N          -3.8938    2.2316    0.8174 N.4     1  ARG1        0.2249
     25 H3         -4.1690    2.3214   -0.1677 H       1  ARG1        0.2001
     26 NH2        -0.9683    1.7351   -5.9644 N.pl3   1  ARG1       -0.2919
     27 HH22       -1.8042    2.3092   -6.1251 H       1  ARG1        0.2545
@<TRIPOS>UNITY_ATOM_ATTR
23 1
charge -1
24 1
charge 1
26 1
charge 1
@<TRIPOS>BOND
     1     1     2    1
     2     1     7    1
     3     1    11    1
     4     1    12    1
     5     2     3    1
     6     2    13    1
     7     2    14    1
     8     3     4    1
     9     3     5    1
    10     3    24    1
    11     5     6   ar
    12     5    23   ar
    13     7     8    1
    14     7    17    1
    15     7    18    1
    16     8     9    1
    17     8    19    1
    18     9    10    1
    19     9    26    2
    20    10    21    1
    21    10    22    1
    22    15    24    1
    23    16    24    1
    24    20    26    1
    25    24    25    1
    26    26    27    1
