@<TRIPOS>MOLECULE
ZINC03831529
 31 32 0 0 0
SMALL
GASTEIGER

@<TRIPOS>ATOM
      1 C5M         2.0381    1.6092    5.7097 C.3     1    T1       -0.0332
      2 C5          2.5877    2.0070    4.3641 C.ar    1    T1        0.0302
      3 C6          1.7554    2.2399    3.3267 C.ar    1    T1        0.0199
      4 N1          2.2716    2.5944    2.1101 N.ar    1    T1       -0.2737
      5 C2          3.6000    2.7238    1.9408 C.ar    1    T1        0.3313
      6 O2          4.0371    3.0442    0.8523 O.2     1    T1       -0.2464
      7 N3          4.4520    2.5032    2.9591 N.ar    1    T1       -0.2747
      8 H3          5.4365    2.6040    2.8155 H       1    T1        0.1734
      9 C4          3.9834    2.1468    4.1722 C.ar    1    T1        0.2568
     10 O4          4.7536    1.9473    5.0942 O.2     1    T1       -0.2674
     11 C1*         1.3690    2.8412    0.9829 C.3     1    T1        0.1422
     12 H1*         1.6760    3.7428    0.4529 H       1    T1        0.0840
     13 C2*         1.3887    1.6364    0.0223 C.3     1    T1        0.0214
     14 C3*        -0.0642    1.1028    0.0530 C.3     1    T1        0.0876
     15 H3*        -0.0781    0.0130    0.0700 H       1    T1        0.0621
     16 C4*        -0.5953    1.6836    1.3883 C.3     1    T1        0.1100
     17 H4*        -0.2788    1.0656    2.2285 H       1    T1        0.0646
     18 O4*         0.0197    2.9881    1.4564 O.3     1    T1       -0.3483
     19 C5*        -2.1198    1.8079    1.3532 C.3     1    T1        0.0729
     20 O5*        -2.5925    2.2343    2.6326 O.3     1    T1       -0.3924
     21 O3*        -0.8146    1.6027   -1.0557 O.3     1    T1       -0.3890
     22 H5M1        2.8604    1.4715    6.4118 H       1    T1        0.0280
     23 H5M2        1.3741    2.3918    6.0767 H       1    T1        0.0280
     24 H5M3        1.4822    0.6765    5.6138 H       1    T1        0.0280
     25 H6          0.6875    2.1424    3.4554 H       1    T1        0.0816
     26 H2*1        2.0823    0.8751    0.3794 H       1    T1        0.0335
     27 H2*2        1.6567    1.9558   -0.9848 H       1    T1        0.0335
     28 H5*1       -2.4075    2.5389    0.5975 H       1    T1        0.0584
     29 H5*2       -2.5577    0.8404    1.1081 H       1    T1        0.0584
     30 H5*        -3.5529    2.3346    2.6836 H       1    T1        0.2095
     31 H3*        -0.4914    1.3032   -1.9164 H       1    T1        0.2099
@<TRIPOS>BOND
     1     1     2    1
     2     1    22    1
     3     1    23    1
     4     1    24    1
     5     2     9   ar
     6     2     3   ar
     7     3     4   ar
     8     3    25    1
     9     4     5   ar
    10     4    11    1
    11     5     6    2
    12     5     7   ar
    13     7     8    1
    14     7     9   ar
    15     9    10    2
    16    11    12    1
    17    11    18    1
    18    11    13    1
    19    13    14    1
    20    13    26    1
    21    13    27    1
    22    14    15    1
    23    14    16    1
    24    14    21    1
    25    16    17    1
    26    16    18    1
    27    16    19    1
    28    19    20    1
    29    19    28    1
    30    19    29    1
    31    20    30    1
    32    21    31    1
