@<TRIPOS>MOLECULE
ZINC00001441
 40 42 0 0 0
SMALL
GASTEIGER

@<TRIPOS>ATOM
      1 C          -0.0559    4.2672    0.0251 C.ar    1  UNL1       -0.0617
      2 C           1.1505    3.5924    0.0100 C.ar    1  UNL1       -0.0615
      3 C           1.1693    2.2102    0.0028 C.ar    1  UNL1       -0.0584
      4 C          -0.0184    1.5028    0.0103 C.ar    1  UNL1       -0.0423
      5 C          -1.2248    2.1776    0.0197 C.ar    1  UNL1       -0.0584
      6 C          -1.2435    3.5598    0.0322 C.ar    1  UNL1       -0.0615
      7 C           0.0021   -0.0041    0.0020 C.3     1  UNL1        0.0127
      8 C           0.0228   -0.5218    1.4416 C.3     1  UNL1       -0.0278
      9 C          -1.2044   -2.5308    0.8772 C.3     1  UNL1       -0.0281
     10 C          -1.0848   -4.0512    0.7388 C.3     1  UNL1        0.0292
     11 C          -0.7891   -4.6607    2.1060 C.3     1  UNL1        0.1401
     12 C           0.4707   -4.0409    2.7036 C.3     1  UNL1        0.0292
     13 C           0.3007   -2.5208    2.7784 C.3     1  UNL1       -0.0281
     14 C          -0.6273   -6.1838    1.9859 C.3     1  UNL1        0.0551
     15 N          -1.7028   -6.7143    2.8400 N.am    1  UNL1       -0.2773
     16 C          -2.3807   -5.6867    3.3713 C.2     1  UNL1        0.4010
     17 O          -3.3265   -5.8322    4.1202 O.2     1  UNL1       -0.2265
     18 O          -1.9199   -4.4851    3.0003 O.3     1  UNL1       -0.4418
     19 H          -0.0705    5.3471    0.0311 H       1  UNL1        0.0618
     20 H           2.0784    4.1450    0.0041 H       1  UNL1        0.0618
     21 H           2.1118    1.6830   -0.0091 H       1  UNL1        0.0620
     22 H          -2.1527    1.6249    0.0211 H       1  UNL1        0.0620
     23 H          -2.1860    4.0870    0.0437 H       1  UNL1        0.0618
     24 H          -0.8878   -0.3767   -0.5053 H       1  UNL1        0.0365
     25 H           0.8920   -0.3525   -0.5222 H       1  UNL1        0.0365
     26 H           0.9126   -0.1491    1.9490 H       1  UNL1        0.0818
     27 H          -0.8671   -0.1733    1.9659 H       1  UNL1        0.0818
     28 H          -2.0333   -2.2906    1.5429 H       1  UNL1        0.0816
     29 H          -1.3860   -2.0898   -0.1030 H       1  UNL1        0.0816
     30 H          -0.2744   -4.2912    0.0505 H       1  UNL1        0.0356
     31 H          -2.0210   -4.4563    0.3546 H       1  UNL1        0.0356
     32 H           1.3278   -4.2806    2.0743 H       1  UNL1        0.0356
     33 H           0.6317   -4.4387    3.7056 H       1  UNL1        0.0356
     34 H           1.2108   -2.0726    3.1773 H       1  UNL1        0.0816
     35 H          -0.5387   -2.2807    3.4309 H       1  UNL1        0.0816
     36 H          -0.7647   -6.5038    0.9530 H       1  UNL1        0.0502
     37 H           0.3491   -6.4962    2.3563 H       1  UNL1        0.0502
     38 H          -1.8900   -7.6535    2.9937 H       1  UNL1        0.1521
     39 N           0.0660   -1.9982    1.4150 N.4     1  UNL1        0.2357
     40 H           0.8366   -2.2982    0.8064 H       1  UNL1        0.2033
@<TRIPOS>UNITY_ATOM_ATTR
39 1
charge 1
@<TRIPOS>BOND
     1     1     6   ar
     2     1     2   ar
     3     1    19    1
     4     2     3   ar
     5     2    20    1
     6     3     4   ar
     7     3    21    1
     8     4     5   ar
     9     4     7    1
    10     5     6   ar
    11     5    22    1
    12     6    23    1
    13     7     8    1
    14     7    24    1
    15     7    25    1
    16     8    26    1
    17     8    27    1
    18     8    39    1
    19     9    10    1
    20     9    28    1
    21     9    29    1
    22     9    39    1
    23    10    11    1
    24    10    30    1
    25    10    31    1
    26    11    18    1
    27    11    12    1
    28    11    14    1
    29    12    13    1
    30    12    32    1
    31    12    33    1
    32    13    34    1
    33    13    35    1
    34    13    39    1
    35    14    15    1
    36    14    36    1
    37    14    37    1
    38    15    16   am
    39    15    38    1
    40    16    17    2
    41    16    18    1
    42    39    40    1
