@<TRIPOS>MOLECULE
ZINC01482171
 20 20 0 0 0
SMALL
GASTEIGER

@<TRIPOS>ATOM
      1 C          -2.1668   -0.0799   -1.2360 C.3     1  UNL1        0.0741
      2 C          -0.7052   -0.5323   -1.2476 C.3     1  UNL1        0.1220
      3 H          -0.2111   -0.1419   -2.1372 H       1  UNL1        0.0658
      4 C           0.0021   -0.0041    0.0020 C.3     1  UNL1        0.1914
      5 H          -0.4504   -0.3636    0.8181 H       1  UNL1        0.0843
      6 C           1.4577   -0.4086   -0.0141 C.2     1  UNL1        0.2153
      7 C           2.1737    0.7327   -0.0148 C.3     1  UNL1        0.2137
      8 C           1.2556    1.8656    0.0001 C.2     1  UNL1        0.3444
      9 O           1.5906    3.0353    0.0032 O.2     1  UNL1       -0.2474
     10 O          -0.0173    1.4269    0.0099 O.3     1  UNL1       -0.4487
     11 O           3.5340    0.8149   -0.0273 O.3     1  UNL1       -0.3740
     12 O           1.9458   -1.6680   -0.0255 O.2     1  UNL1       -0.2900
     13 O          -0.6486   -1.9602   -1.2593 O.3     1  UNL1       -0.3854
     14 O          -2.7968   -0.4733   -2.4568 O.3     1  UNL1       -0.3923
     15 H          -2.6836   -0.5423   -0.3950 H       1  UNL1        0.0584
     16 H          -2.2106    1.0047   -1.1376 H       1  UNL1        0.0584
     17 H           3.9235   -0.1061   -0.0360 H       1  UNL1        0.2110
     18 H           2.3745    0.4789   -0.9610 H       1  UNL1        0.0793
     19 H          -1.0702   -2.3767   -0.4952 H       1  UNL1        0.2101
     20 H          -3.7276   -0.2185   -2.5189 H       1  UNL1        0.2095
@<TRIPOS>BOND
     1     1     2    1
     2     1    14    1
     3     1    15    1
     4     1    16    1
     5     2     3    1
     6     2     4    1
     7     2    13    1
     8     4    10    1
     9     4     6    1
    10     4     5    1
    11     6     7    1
    12     6    12    2
    13     7     8    1
    14     7    11    1
    15     7    18    1
    16     8     9    2
    17     8    10    1
    18    11    17    1
    19    13    19    1
    20    14    20    1
