@<TRIPOS>MOLECULE
ZINC00085733
 26 26 0 0 0
SMALL
GASTEIGER

@<TRIPOS>ATOM
      1 C          -1.5213    1.9841    0.0328 C.ar    1  UNL1       -0.0567
      2 C          -1.7610    3.3449    0.0656 C.ar    1  UNL1       -0.0431
      3 C          -0.7007    4.2336    0.0818 C.ar    1  UNL1        0.0410
      4 C           0.5989    3.7593    0.0710 C.ar    1  UNL1       -0.0431
      5 C           0.8374    2.3981    0.0440 C.ar    1  UNL1       -0.0567
      6 C          -0.2225    1.5107    0.0273 C.ar    1  UNL1       -0.0388
      7 C           0.0382    0.0267   -0.0031 C.3     1  UNL1        0.0292
      8 H           1.1132   -0.1534   -0.0082 H       1  UNL1        0.0404
      9 C          -0.5856   -0.5749   -1.2640 C.3     1  UNL1       -0.0015
     10 C           0.1287   -0.0441   -2.4802 C.2     1  UNL1        0.0425
     11 O           1.1084    0.6509   -2.3500 O.co2   1  UNL1       -0.5498
     12 C          -0.5824   -0.6256    1.2339 C.3     1  UNL1       -0.0281
     13 CL         -1.0009    5.9431    0.1152 Cl      1  UNL1       -0.0835
     14 H          -2.3489    1.2904    0.0156 H       1  UNL1        0.0621
     15 H          -2.7757    3.7146    0.0741 H       1  UNL1        0.0632
     16 H           1.4270    4.4525    0.0833 H       1  UNL1        0.0632
     17 H           1.8518    2.0277    0.0355 H       1  UNL1        0.0621
     18 H          -0.4926   -1.6605   -1.2330 H       1  UNL1        0.0332
     19 H          -1.6397   -0.3018   -1.3138 H       1  UNL1        0.0332
     20 H          -0.1881   -0.1500    2.1319 H       1  UNL1        0.0819
     21 H          -1.6652   -0.5042    1.2041 H       1  UNL1        0.0819
     22 H          -0.5632   -2.4897    2.1075 H       1  UNL1        0.1994
     23 H          -0.6355   -2.5270    0.4464 H       1  UNL1        0.1994
     24 O          -0.3234   -0.3435   -3.7081 O.co2   1  UNL1       -0.5498
     25 N          -0.2251   -2.0551    1.2505 N.4     1  UNL1        0.2190
     26 H           0.7965   -2.1482    1.2081 H       1  UNL1        0.1994
@<TRIPOS>UNITY_ATOM_ATTR
24 1
charge -1
25 1
charge 1
@<TRIPOS>BOND
     1     1     6   ar
     2     1     2   ar
     3     1    14    1
     4     2     3   ar
     5     2    15    1
     6     3     4   ar
     7     3    13    1
     8     4     5   ar
     9     4    16    1
    10     5     6   ar
    11     5    17    1
    12     6     7    1
    13     7     8    1
    14     7     9    1
    15     7    12    1
    16     9    10    1
    17     9    18    1
    18     9    19    1
    19    10    11   ar
    20    10    24   ar
    21    12    20    1
    22    12    21    1
    23    12    25    1
    24    22    25    1
    25    23    25    1
    26    25    26    1
