@<TRIPOS>MOLECULE
ZINC08101133
 73 75 0 0 0
SMALL
GASTEIGER

@<TRIPOS>ATOM
      1 C          -1.3517   -2.0352   -0.9460 C.3     1  UNL1        0.0381
      2 C          -1.4657   -2.7551    0.3993 C.3     1  UNL1        0.0104
      3 H          -2.3556   -2.4067    0.9235 H       1  UNL1        0.0878
      4 C          -0.2259   -2.4559    1.2445 C.3     1  UNL1        0.1325
      5 H           0.6639   -2.8043    0.7203 H       1  UNL1        0.0681
      6 C          -0.1213   -0.9478    1.4803 C.3     1  UNL1        0.1181
      7 H           0.7620   -0.7347    2.0825 H       1  UNL1        0.0649
      8 C          -0.0072   -0.2280    0.1351 C.3     1  UNL1        0.1325
      9 H           0.8827   -0.5764   -0.3892 H       1  UNL1        0.0681
     10 C          -1.2470   -0.5271   -0.7102 C.3     1  UNL1        0.0104
     11 H          -1.1657   -0.0143   -1.6685 H       1  UNL1        0.0878
     12 O           0.0906    1.1806    0.3553 O.3     1  UNL1       -0.3372
     13 C           1.4308    1.6543    0.5020 C.3     1  UNL1        0.1887
     14 H           1.9547    1.0413    1.2354 H       1  UNL1        0.0938
     15 C           1.4088    3.1100    0.9753 C.3     1  UNL1        0.1341
     16 H           0.9340    3.1675    1.9548 H       1  UNL1        0.0671
     17 C           2.8467    3.6290    1.0723 C.3     1  UNL1        0.1142
     18 H           3.3919    3.0546    1.8212 H       1  UNL1        0.0648
     19 C           3.5279    3.4710   -0.2906 C.3     1  UNL1        0.1147
     20 H           4.5685    3.7869   -0.2175 H       1  UNL1        0.0648
     21 C           3.4680    2.0013   -0.7149 C.3     1  UNL1        0.1294
     22 H           4.0187    1.3930    0.0026 H       1  UNL1        0.0678
     23 O           2.1051    1.5736   -0.7553 O.3     1  UNL1       -0.3375
     24 C           4.0932    1.8447   -2.1026 C.3     1  UNL1       -0.0058
     25 O           2.8514    4.2755   -1.2587 O.3     1  UNL1       -0.3864
     26 O           2.8329    5.0091    1.4426 O.3     1  UNL1       -0.3864
     27 O           0.6762    3.9050    0.0407 O.3     1  UNL1       -0.3841
     28 O          -1.2879   -0.4910    2.1676 O.3     1  UNL1       -0.3862
     29 O          -0.3325   -3.1282    2.5010 O.3     1  UNL1       -0.3371
     30 C           0.9246   -3.5009    3.0692 C.3     1  UNL1        0.1915
     31 H           1.5208   -4.0239    2.3214 H       1  UNL1        0.0939
     32 C           0.6895   -4.4214    4.2697 C.3     1  UNL1        0.1506
     33 H           0.1976   -5.3354    3.9370 H       1  UNL1        0.0702
     34 C           2.0375   -4.7677    4.9094 C.3     1  UNL1        0.0360
     35 H           2.6485   -5.3204    4.1957 H       1  UNL1        0.0904
     36 C           2.7520   -3.4709    5.3022 C.3     1  UNL1        0.1283
     37 H           3.7356   -3.7058    5.7089 H       1  UNL1        0.0678
     38 C           2.9075   -2.5872    4.0618 C.3     1  UNL1        0.1159
     39 H           3.5299   -3.0981    3.3272 H       1  UNL1        0.0648
     40 O           1.6199   -2.3285    3.4985 O.3     1  UNL1       -0.3403
     41 C           3.5665   -1.2642    4.4573 C.3     1  UNL1        0.0731
     42 O           3.8176   -0.4878    3.2842 O.3     1  UNL1       -0.3924
     43 O           1.9806   -2.7802    6.2871 O.3     1  UNL1       -0.3834
     44 O          -0.1365   -3.7558    5.2272 O.3     1  UNL1       -0.3812
     45 H          -0.4618   -2.3837   -1.4702 H       1  UNL1        0.0377
     46 H          -2.2349   -2.2484   -1.5481 H       1  UNL1        0.0377
     47 H          -2.4424    0.9473    0.0869 H       1  UNL1        0.1998
     48 H          -3.2854   -0.3759   -0.4647 H       1  UNL1        0.1998
     49 H           3.5427    2.4534   -2.8199 H       1  UNL1        0.0840
     50 H           5.1328    2.1709   -2.0716 H       1  UNL1        0.0840
     51 H           3.0865    0.0899   -2.4841 H       1  UNL1        0.1995
     52 H           4.4416    0.3049   -3.4239 H       1  UNL1        0.1995
     53 H           2.8502    5.2204   -1.0531 H       1  UNL1        0.2100
     54 H           2.4153    5.1828    2.2973 H       1  UNL1        0.2100
     55 H          -0.2434    3.6290   -0.0746 H       1  UNL1        0.2101
     56 H          -1.2899    0.4584    2.3510 H       1  UNL1        0.2100
     57 H           2.9029   -0.7124    5.1230 H       1  UNL1        0.0584
     58 H           4.5081   -1.4658    4.9680 H       1  UNL1        0.0584
     59 H           4.2354    0.3664    3.4598 H       1  UNL1        0.2095
     60 H           2.3745   -1.9480    6.5826 H       1  UNL1        0.2102
     61 H           1.3398   -6.4474    5.8738 H       1  UNL1        0.1999
     62 H           2.6865   -5.7766    6.5825 H       1  UNL1        0.1999
     63 H          -1.0059   -3.5023    4.8880 H       1  UNL1        0.2103
     64 H          -2.3778   -4.4266   -0.3835 H       1  UNL1        0.1998
     65 H          -0.7252   -4.5615   -0.2541 H       1  UNL1        0.1998
     66 N          -2.4429   -0.0691    0.0187 N.4     1  UNL1        0.2228
     67 H          -2.4352   -0.4683    0.9646 H       1  UNL1        0.1998
     68 N           4.0487    0.4241   -2.4917 N.4     1  UNL1        0.2204
     69 H           4.5999   -0.1264   -1.8229 H       1  UNL1        0.1995
     70 N           1.8018   -5.5736    6.1202 N.4     1  UNL1        0.2246
     71 H           1.2003   -5.0468    6.7645 H       1  UNL1        0.1999
     72 N          -1.5687   -4.2110    0.1968 N.4     1  UNL1        0.2228
     73 H          -1.6777   -4.6716    1.1079 H       1  UNL1        0.1998
@<TRIPOS>UNITY_ATOM_ATTR
66 1
charge 1
68 1
charge 1
70 1
charge 1
72 1
charge 1
@<TRIPOS>BOND
     1     1    10    1
     2     1     2    1
     3     1    45    1
     4     1    46    1
     5     2     3    1
     6     2     4    1
     7     2    72    1
     8     4     5    1
     9     4     6    1
    10     4    29    1
    11     6     7    1
    12     6     8    1
    13     6    28    1
    14     8     9    1
    15     8    10    1
    16     8    12    1
    17    10    11    1
    18    10    66    1
    19    12    13    1
    20    13    14    1
    21    13    23    1
    22    13    15    1
    23    15    16    1
    24    15    17    1
    25    15    27    1
    26    17    18    1
    27    17    19    1
    28    17    26    1
    29    19    20    1
    30    19    21    1
    31    19    25    1
    32    21    22    1
    33    21    23    1
    34    21    24    1
    35    24    49    1
    36    24    50    1
    37    24    68    1
    38    25    53    1
    39    26    54    1
    40    27    55    1
    41    28    56    1
    42    29    30    1
    43    30    31    1
    44    30    40    1
    45    30    32    1
    46    32    33    1
    47    32    34    1
    48    32    44    1
    49    34    35    1
    50    34    36    1
    51    34    70    1
    52    36    37    1
    53    36    38    1
    54    36    43    1
    55    38    39    1
    56    38    40    1
    57    38    41    1
    58    41    42    1
    59    41    57    1
    60    41    58    1
    61    42    59    1
    62    43    60    1
    63    44    63    1
    64    47    66    1
    65    48    66    1
    66    51    68    1
    67    52    68    1
    68    61    70    1
    69    62    70    1
    70    64    72    1
    71    65    72    1
    72    66    67    1
    73    68    69    1
    74    70    71    1
    75    72    73    1
