@<TRIPOS>MOLECULE
ZINC03831371
 64 67 0 0 0
SMALL
GASTEIGER

@<TRIPOS>ATOM
      1 C          -0.2478   -0.3198    3.1077 C.3     1  UNL1       -0.0562
      2 C          -0.0462    1.1220    2.6370 C.3     1  UNL1        0.0092
      3 C           1.4364    1.4998    2.5779 C.3     1  UNL1       -0.0178
      4 C           2.1255    0.7885    1.4176 C.3     1  UNL1        0.0600
      5 H           2.0005   -0.2894    1.5211 H       1  UNL1        0.0596
      6 C           1.4887    1.2559    0.1033 C.3     1  UNL1        0.0007
      7 H           1.5614    2.3405    0.0240 H       1  UNL1        0.0340
      8 C           0.0197    0.8352    0.0987 C.3     1  UNL1       -0.0311
      9 H          -0.0319   -0.2520    0.1559 H       1  UNL1        0.0308
     10 C          -0.7324    1.4170    1.2725 C.3     1  UNL1       -0.0292
     11 H          -1.7462    1.0169    1.2817 H       1  UNL1        0.0310
     12 C          -0.8319    2.9334    1.2421 C.3     1  UNL1       -0.0463
     13 C          -1.2003    3.3099    2.6960 C.3     1  UNL1       -0.0161
     14 C          -0.7268    2.1451    3.5854 C.3     1  UNL1        0.1326
     15 C           0.2635    2.6429    4.6064 C.2     1  UNL1        0.2022
     16 O           0.8662    3.6711    4.4119 O.2     1  UNL1       -0.2907
     17 C           0.5019    1.8574    5.8703 C.3     1  UNL1        0.1530
     18 O           1.4922    2.5392    6.6843 O.3     1  UNL1       -0.4568
     19 C           1.8201    1.9656    7.8528 C.2     1  UNL1        0.3078
     20 O           1.2969    0.9282    8.1844 O.2     1  UNL1       -0.2508
     21 C           2.8407    2.6156    8.7511 C.3     1  UNL1        0.0500
     22 C           3.0289    1.7646   10.0086 C.3     1  UNL1       -0.0031
     23 C           4.0496    2.4145   10.9068 C.2     1  UNL1        0.0423
     24 O           4.5728    3.4519   10.5753 O.co2   1  UNL1       -0.5498
     25 O          -1.8438    1.5401    4.2399 O.3     1  UNL1       -0.3804
     26 C          -0.6522    1.2895   -1.1999 C.3     1  UNL1       -0.0458
     27 C           0.0042    0.5904   -2.3943 C.3     1  UNL1       -0.0302
     28 C           1.4942    0.8725   -2.3420 C.2     1  UNL1       -0.0559
     29 C           2.0678    1.3561   -3.4189 C.2     1  UNL1       -0.0149
     30 C           3.5003    1.6914   -3.4054 C.2     1  UNL1        0.1787
     31 O           4.0490    2.1183   -4.4041 O.2     1  UNL1       -0.2879
     32 C           4.2552    1.4979   -2.1557 C.2     1  UNL1       -0.0180
     33 C           3.6516    0.9908   -1.0922 C.2     1  UNL1       -0.0701
     34 C           2.2190    0.5802   -1.0620 C.3     1  UNL1        0.0131
     35 C           2.1693   -0.9313   -0.8302 C.3     1  UNL1       -0.0520
     36 O           3.5175    1.1113    1.4167 O.3     1  UNL1       -0.3914
     37 H           0.1863   -0.4421    4.1000 H       1  UNL1        0.0236
     38 H          -1.3139   -0.5433    3.1474 H       1  UNL1        0.0236
     39 H           0.2405   -1.0011    2.4109 H       1  UNL1        0.0236
     40 H           1.9181    1.2125    3.5125 H       1  UNL1        0.0297
     41 H           1.5276    2.5776    2.4438 H       1  UNL1        0.0297
     42 H          -1.6176    3.2451    0.5539 H       1  UNL1        0.0269
     43 H           0.1224    3.3782    0.9603 H       1  UNL1        0.0269
     44 H          -2.2793    3.4349    2.7874 H       1  UNL1        0.0297
     45 H          -0.6918    4.2301    2.9837 H       1  UNL1        0.0297
     46 H          -0.3541    1.7806    6.3815 H       1  UNL1        0.0779
     47 H           0.8639    0.8612    5.6161 H       1  UNL1        0.0779
     48 H           3.7904    2.6975    8.2223 H       1  UNL1        0.0381
     49 H           2.4953    3.6100    9.0336 H       1  UNL1        0.0381
     50 H           2.0793    1.6827   10.5373 H       1  UNL1        0.0330
     51 H           3.3744    0.7702    9.7260 H       1  UNL1        0.0330
     52 H          -2.3111    2.1304    4.8467 H       1  UNL1        0.2108
     53 H          -1.7150    1.0505   -1.1611 H       1  UNL1        0.0271
     54 H          -0.5277    2.3662   -1.3151 H       1  UNL1        0.0271
     55 H          -0.4120    0.9797   -3.3235 H       1  UNL1        0.0310
     56 H          -0.1696   -0.4840   -2.3345 H       1  UNL1        0.0310
     57 H           1.4880    1.5189   -4.3154 H       1  UNL1        0.0655
     58 H           5.2994    1.7696   -2.1068 H       1  UNL1        0.0653
     59 H           4.2332    0.8667   -0.1907 H       1  UNL1        0.0582
     60 H           1.1304   -1.2593   -0.7934 H       1  UNL1        0.0241
     61 H           2.6825   -1.4410   -1.6457 H       1  UNL1        0.0241
     62 H           2.6594   -1.1706    0.1135 H       1  UNL1        0.0241
     63 H           3.9839    0.8433    2.2203 H       1  UNL1        0.2098
     64 O           4.3774    1.8410   12.0753 O.co2   1  UNL1       -0.5498
@<TRIPOS>UNITY_ATOM_ATTR
64 1
charge -1
@<TRIPOS>BOND
     1     1     2    1
     2     1    37    1
     3     1    38    1
     4     1    39    1
     5     2    10    1
     6     2    14    1
     7     2     3    1
     8     3     4    1
     9     3    40    1
    10     3    41    1
    11     4     5    1
    12     4     6    1
    13     4    36    1
    14     6     7    1
    15     6    34    1
    16     6     8    1
    17     8     9    1
    18     8    10    1
    19     8    26    1
    20    10    11    1
    21    10    12    1
    22    12    13    1
    23    12    42    1
    24    12    43    1
    25    13    14    1
    26    13    44    1
    27    13    45    1
    28    14    15    1
    29    14    25    1
    30    15    16    2
    31    15    17    1
    32    17    18    1
    33    17    46    1
    34    17    47    1
    35    18    19    1
    36    19    20    2
    37    19    21    1
    38    21    22    1
    39    21    48    1
    40    21    49    1
    41    22    23    1
    42    22    50    1
    43    22    51    1
    44    23    24   ar
    45    23    64   ar
    46    25    52    1
    47    26    27    1
    48    26    53    1
    49    26    54    1
    50    27    28    1
    51    27    55    1
    52    27    56    1
    53    28    34    1
    54    28    29    2
    55    29    30    1
    56    29    57    1
    57    30    31    2
    58    30    32    1
    59    32    33    2
    60    32    58    1
    61    33    34    1
    62    33    59    1
    63    34    35    1
    64    35    60    1
    65    35    61    1
    66    35    62    1
    67    36    63    1
