@<TRIPOS>MOLECULE
ZINC03830628
 52 56 0 0 0
SMALL
GASTEIGER

@<TRIPOS>ATOM
      1 C           0.6466   -0.6041    1.2643 C.3     1  UNL1       -0.0558
      2 C           0.0021   -0.0041    0.0020 C.3     1  UNL1        0.0111
      3 C           0.5678   -0.8282   -1.2490 C.3     1  UNL1       -0.0435
      4 C           1.7616   -0.0953   -1.8415 C.3     1  UNL1       -0.0485
      5 C           2.5143    0.6127   -0.7218 C.3     1  UNL1       -0.0285
      6 H           2.6473   -0.0507    0.0979 H       1  UNL1        0.0312
      7 C           1.7000    1.8257   -0.3379 C.3     1  UNL1       -0.0337
      8 H           1.7846    2.5864   -1.0666 H       1  UNL1        0.0307
      9 C           0.2727    1.5064   -0.1535 C.3     1  UNL1       -0.0289
     10 H          -0.2270    1.8283   -1.1638 H       1  UNL1        0.0310
     11 C          -0.5377    2.0336    0.9540 C.3     1  UNL1       -0.0458
     12 C          -1.7696    1.1180    1.0511 C.3     1  UNL1       -0.0118
     13 C          -1.4625   -0.0771    0.0790 C.3     1  UNL1        0.1317
     14 C          -1.9463   -1.3324    0.8237 C.1     1  UNL1       -0.0704
     15 C          -2.3157   -2.2908    1.3922 C.1     1  UNL1       -0.1163
     16 O          -2.1688    0.0976   -1.1695 O.3     1  UNL1       -0.3760
     17 C           2.3727    2.3777    0.9810 C.3     1  UNL1       -0.0459
     18 C           3.7255    2.9350    0.6097 C.3     1  UNL1       -0.0305
     19 C           4.5233    1.8750   -0.0247 C.2     1  UNL1       -0.0595
     20 C           5.8101    1.5976    0.4287 C.2     1  UNL1       -0.0166
     21 C           6.6017    0.5568   -0.0666 C.ar    1  UNL1        0.1633
     22 C           6.1235   -0.3416   -1.0253 C.ar    1  UNL1        0.0195
     23 C           7.1801   -1.1772   -1.2502 C.ar    1  UNL1        0.0738
     24 N           8.0999   -0.8178   -0.4584 N.ar    1  UNL1       -0.0858
     25 O           7.8410    0.1122    0.2054 O.2     1  UNL1       -0.3550
     26 C           4.7632   -0.2175   -1.6448 C.3     1  UNL1       -0.0132
     27 C           3.9728    1.0265   -1.1280 C.3     1  UNL1       -0.0035
     28 C           3.8715    1.9884   -2.3839 C.3     1  UNL1       -0.0553
     29 H           0.1429   -0.2153    2.1493 H       1  UNL1        0.0236
     30 H           0.5517   -1.6897    1.2397 H       1  UNL1        0.0236
     31 H           1.7016   -0.3323    1.2978 H       1  UNL1        0.0236
     32 H           0.8447   -1.8563   -0.9280 H       1  UNL1        0.0272
     33 H          -0.2262   -0.8899   -1.9420 H       1  UNL1        0.0272
     34 H           2.4116   -0.8814   -2.3265 H       1  UNL1        0.0268
     35 H           1.4205    0.5739   -2.6107 H       1  UNL1        0.0268
     36 H           0.0745    1.9138    1.8982 H       1  UNL1        0.0269
     37 H          -0.7834    3.0826    0.8353 H       1  UNL1        0.0269
     38 H          -2.5842    1.7201    0.6322 H       1  UNL1        0.0303
     39 H          -1.9789    0.8063    2.0415 H       1  UNL1        0.0303
     40 H          -2.6460   -3.1480    1.9007 H       1  UNL1        0.1229
     41 H          -3.1309    0.0446   -1.0878 H       1  UNL1        0.2114
     42 H           2.4676    1.6883    1.7327 H       1  UNL1        0.0271
     43 H           1.7529    3.1767    1.3161 H       1  UNL1        0.0271
     44 H           4.2978    3.2761    1.4918 H       1  UNL1        0.0310
     45 H           3.6006    3.7510   -0.1579 H       1  UNL1        0.0310
     46 H           6.1018    2.3059    1.2658 H       1  UNL1        0.0655
     47 H           7.0874   -2.0156   -1.9331 H       1  UNL1        0.0867
     48 H           4.1288   -1.0663   -1.4509 H       1  UNL1        0.0323
     49 H           4.8083   -0.0950   -2.7235 H       1  UNL1        0.0323
     50 H           3.2878    2.8702   -2.1201 H       1  UNL1        0.0238
     51 H           4.8724    2.2932   -2.6897 H       1  UNL1        0.0238
     52 H           3.3848    1.4630   -3.2056 H       1  UNL1        0.0238
@<TRIPOS>BOND
     1     1     2    1
     2     1    29    1
     3     1    30    1
     4     1    31    1
     5     2     9    1
     6     2    13    1
     7     2     3    1
     8     3     4    1
     9     3    32    1
    10     3    33    1
    11     4     5    1
    12     4    34    1
    13     4    35    1
    14     5     6    1
    15     5    27    1
    16     5     7    1
    17     7     8    1
    18     7     9    1
    19     7    17    1
    20     9    10    1
    21     9    11    1
    22    11    12    1
    23    11    36    1
    24    11    37    1
    25    12    13    1
    26    12    38    1
    27    12    39    1
    28    13    14    1
    29    13    16    1
    30    14    15    3
    31    15    40    1
    32    16    41    1
    33    17    18    1
    34    17    42    1
    35    17    43    1
    36    18    19    1
    37    18    44    1
    38    18    45    1
    39    19    27    1
    40    19    20    2
    41    20    21    1
    42    20    46    1
    43    21    25   ar
    44    21    22   ar
    45    22    23   ar
    46    22    26    1
    47    23    24   ar
    48    23    47    1
    49    24    25   ar
    50    26    27    1
    51    26    48    1
    52    26    49    1
    53    27    28    1
    54    28    50    1
    55    28    51    1
    56    28    52    1
