@<TRIPOS>MOLECULE
ZINC08552389
 49 52 0 0 0
SMALL
GASTEIGER

@<TRIPOS>ATOM
      1 C          -2.2328    3.2824   -2.1627 C.3     1  UNL1       -0.0567
      2 C          -0.9780    3.0699   -1.2686 C.3     1  UNL1       -0.0004
      3 C          -0.7791    1.5792   -1.2151 C.3     1  UNL1       -0.0445
      4 C          -0.0127    1.0889    0.0080 C.3     1  UNL1       -0.0488
      5 C          -0.7454    1.5951    1.2538 C.3     1  UNL1       -0.0314
      6 H          -1.8014    1.3255    1.1872 H       1  UNL1        0.0309
      7 C          -0.6157    3.1182    1.2806 C.3     1  UNL1       -0.0340
      8 H          -1.1299    3.4777    2.1884 H       1  UNL1        0.0307
      9 C          -1.3068    3.7365    0.0709 C.3     1  UNL1       -0.0298
     10 H          -2.4068    3.7391    0.2303 H       1  UNL1        0.0310
     11 C          -0.7901    5.1905   -0.0889 C.3     1  UNL1       -0.0468
     12 C           0.4298    5.0728   -1.0234 C.3     1  UNL1       -0.0235
     13 C           0.1408    3.8647   -1.9380 C.3     1  UNL1        0.0689
     14 C           1.4134    3.0505   -2.1530 C.3     1  UNL1       -0.0356
     15 O          -0.3235    4.3487   -3.2116 O.3     1  UNL1       -0.3883
     16 C           0.8475    3.5363    1.3696 C.3     1  UNL1       -0.0460
     17 C           1.4577    3.0019    2.6715 C.3     1  UNL1       -0.0308
     18 C           1.2483    1.4990    2.7156 C.2     1  UNL1       -0.0629
     19 C           2.3061    0.7218    2.9362 C.2     1  UNL1       -0.0197
     20 C           2.1317   -0.7301    3.0401 C.2     1  UNL1        0.1561
     21 O           3.0534   -1.4978    2.8516 O.2     1  UNL1       -0.2927
     22 C           0.7438   -1.2234    3.3913 C.3     1  UNL1        0.0104
     23 C          -0.2575   -0.5302    2.4709 C.3     1  UNL1       -0.0392
     24 C          -0.1428    0.9796    2.5172 C.3     1  UNL1       -0.0160
     25 H          -0.7417    1.3272    3.3662 H       1  UNL1        0.0349
     26 H          -3.0917    2.7905   -1.7061 H       1  UNL1        0.0236
     27 H          -2.4338    4.3493   -2.2590 H       1  UNL1        0.0236
     28 H          -2.0522    2.8561   -3.1495 H       1  UNL1        0.0236
     29 H          -0.3159    1.2076   -2.1246 H       1  UNL1        0.0272
     30 H          -1.7830    1.1144   -1.1782 H       1  UNL1        0.0272
     31 H           0.0021   -0.0041    0.0020 H       1  UNL1        0.0268
     32 H           1.0104    1.4546    0.0002 H       1  UNL1        0.0268
     33 H          -1.5582    5.8206   -0.5476 H       1  UNL1        0.0269
     34 H          -0.5056    5.6141    0.8743 H       1  UNL1        0.0269
     35 H           0.5264    5.9776   -1.6277 H       1  UNL1        0.0293
     36 H           1.3420    4.9104   -0.4555 H       1  UNL1        0.0293
     37 H           1.1933    2.1935   -2.7894 H       1  UNL1        0.0257
     38 H           2.1675    3.6748   -2.6323 H       1  UNL1        0.0257
     39 H           1.7885    2.7018   -1.1908 H       1  UNL1        0.0257
     40 H           0.3329    4.8648   -3.6993 H       1  UNL1        0.2102
     41 H           1.4129    3.1422    0.5292 H       1  UNL1        0.0271
     42 H           0.9250    4.6266    1.3808 H       1  UNL1        0.0271
     43 H           0.9562    3.4641    3.5221 H       1  UNL1        0.0310
     44 H           2.5211    3.2291    2.6989 H       1  UNL1        0.0310
     45 H           3.2911    1.1560    2.9855 H       1  UNL1        0.0652
     46 H           0.5441   -1.0048    4.3465 H       1  UNL1        0.0345
     47 H           0.6898   -2.3040    3.2455 H       1  UNL1        0.0345
     48 H          -1.2690   -0.8132    2.7820 H       1  UNL1        0.0275
     49 H          -0.1040   -0.8859    1.4542 H       1  UNL1        0.0275
@<TRIPOS>BOND
     1     1     2    1
     2     1    26    1
     3     1    27    1
     4     1    28    1
     5     2     9    1
     6     2    13    1
     7     2     3    1
     8     3     4    1
     9     3    29    1
    10     3    30    1
    11     4     5    1
    12     4    31    1
    13     4    32    1
    14     5     6    1
    15     5    24    1
    16     5     7    1
    17     7     8    1
    18     7     9    1
    19     7    16    1
    20     9    10    1
    21     9    11    1
    22    11    12    1
    23    11    33    1
    24    11    34    1
    25    12    13    1
    26    12    35    1
    27    12    36    1
    28    13    14    1
    29    13    15    1
    30    14    37    1
    31    14    38    1
    32    14    39    1
    33    15    40    1
    34    16    17    1
    35    16    41    1
    36    16    42    1
    37    17    18    1
    38    17    43    1
    39    17    44    1
    40    18    24    1
    41    18    19    2
    42    19    20    1
    43    19    45    1
    44    20    21    2
    45    20    22    1
    46    22    23    1
    47    22    46    1
    48    22    47    1
    49    23    24    1
    50    23    48    1
    51    23    49    1
    52    24    25    1
