@<TRIPOS>MOLECULE
ZINC00403533
 45 49 0 0 0
SMALL
GASTEIGER

@<TRIPOS>ATOM
      1 C          -1.1208   -0.7061   -1.9649 C.3     1  UNL1       -0.0427
      2 C          -2.6081    0.5284   -0.5091 C.3     1  UNL1       -0.0307
      3 C          -3.3150    1.8739   -0.3049 C.3     1  UNL1        0.0039
      4 C          -2.2518    2.9598   -0.1553 C.3     1  UNL1        0.0820
      5 C          -1.3317    2.6166    0.9900 C.ar    1  UNL1        0.0146
      6 C          -0.1970    1.8438    0.9269 C.ar    1  UNL1       -0.0343
      7 C           0.4633    1.6503    2.1272 C.ar    1  UNL1       -0.0544
      8 C           0.0105    2.2693    3.2810 C.ar    1  UNL1       -0.0160
      9 C          -1.0917    3.1207    3.3081 C.ar    1  UNL1        0.1618
     10 C          -1.7706    3.3134    2.1063 C.ar    1  UNL1        0.1671
     11 O          -2.8115    4.1099    1.7812 O.3     1  UNL1       -0.4764
     12 C          -2.8467    4.2745    0.3317 C.3     1  UNL1        0.1704
     13 H          -3.7577    4.3945   -0.0628 H       1  UNL1        0.0824
     14 C          -1.9768    5.4491   -0.0056 C.2     1  UNL1        0.1745
     15 O          -2.0534    6.4384    0.6827 O.2     1  UNL1       -0.2934
     16 C          -1.0171    5.4526   -1.1573 C.3     1  UNL1        0.0124
     17 C          -0.3145    4.0971   -1.2549 C.3     1  UNL1       -0.0109
     18 C          -1.3892    2.9956   -1.3848 C.3     1  UNL1        0.1225
     19 C          -0.6969    1.6374   -1.5323 C.3     1  UNL1        0.0133
     20 H          -0.1122    1.6585   -2.4519 H       1  UNL1        0.0883
     21 C           0.2433    1.2912   -0.3896 C.3     1  UNL1        0.0187
     22 O          -2.1967    3.2491   -2.5362 O.3     1  UNL1       -0.3819
     23 O          -1.4850    3.7374    4.4546 O.3     1  UNL1       -0.4914
     24 C          -0.7167    3.4729    5.6301 C.3     1  UNL1        0.0790
     25 H          -0.5583   -1.0436   -1.0943 H       1  UNL1        0.0778
     26 H          -1.9050   -1.4279   -2.1929 H       1  UNL1        0.0778
     27 H          -0.4495   -0.6170   -2.8190 H       1  UNL1        0.0778
     28 H          -3.3529   -0.2521   -0.6647 H       1  UNL1        0.0815
     29 H          -2.0168    0.2920    0.3755 H       1  UNL1        0.0815
     30 H          -3.9440    2.0926   -1.1678 H       1  UNL1        0.0328
     31 H          -3.9282    1.8334    0.5953 H       1  UNL1        0.0328
     32 H           1.3352    1.0140    2.1650 H       1  UNL1        0.0622
     33 H           0.5382    2.0828    4.2047 H       1  UNL1        0.0655
     34 H          -1.5161    5.6259   -2.0064 H       1  UNL1        0.0344
     35 H          -0.2739    6.2356   -1.0067 H       1  UNL1        0.0344
     36 H           0.3396    4.0864   -2.1267 H       1  UNL1        0.0299
     37 H           0.2744    3.9250   -0.3539 H       1  UNL1        0.0299
     38 H           0.3097    0.2062   -0.3085 H       1  UNL1        0.0369
     39 H           1.2332    1.6848   -0.6202 H       1  UNL1        0.0369
     40 H          -1.7018    3.2710   -3.3666 H       1  UNL1        0.2105
     41 H          -0.7424    2.4053    5.8482 H       1  UNL1        0.0660
     42 H           0.3147    3.7859    5.4681 H       1  UNL1        0.0660
     43 H          -1.1365    4.0257    6.4705 H       1  UNL1        0.0660
     44 N          -1.7456    0.6059   -1.7103 N.4     1  UNL1        0.2375
     45 H          -2.3260    0.8605   -2.5181 H       1  UNL1        0.2034
@<TRIPOS>UNITY_ATOM_ATTR
44 1
charge 1
@<TRIPOS>BOND
     1     1    25    1
     2     1    26    1
     3     1    27    1
     4     1    44    1
     5     2     3    1
     6     2    28    1
     7     2    29    1
     8     2    44    1
     9     3     4    1
    10     3    30    1
    11     3    31    1
    12     4    12    1
    13     4    18    1
    14     4     5    1
    15     5    10   ar
    16     5     6   ar
    17     6    21    1
    18     6     7   ar
    19     7     8   ar
    20     7    32    1
    21     8     9   ar
    22     8    33    1
    23     9    10   ar
    24     9    23    1
    25    10    11    1
    26    11    12    1
    27    12    13    1
    28    12    14    1
    29    14    15    2
    30    14    16    1
    31    16    17    1
    32    16    34    1
    33    16    35    1
    34    17    18    1
    35    17    36    1
    36    17    37    1
    37    18    19    1
    38    18    22    1
    39    19    20    1
    40    19    21    1
    41    19    44    1
    42    21    38    1
    43    21    39    1
    44    22    40    1
    45    23    24    1
    46    24    41    1
    47    24    42    1
    48    24    43    1
    49    44    45    1
