@<TRIPOS>MOLECULE
ZINC08551998
 44 45 0 0 0
SMALL
GASTEIGER

@<TRIPOS>ATOM
      1 C          -1.4333   -0.5336    0.0129 C.3     1  UNL1       -0.0623
      2 C           0.0021   -0.0041    0.0020 C.3     1  UNL1       -0.0401
      3 H           0.5293   -0.3651    0.8851 H       1  UNL1        0.0299
      4 C           0.7182   -0.4975   -1.2568 C.3     1  UNL1       -0.0130
      5 C           2.1536    0.0321   -1.2676 C.3     1  UNL1        0.1039
      6 H           2.6808   -0.3290   -0.3846 H       1  UNL1        0.0734
      7 C           2.1328    1.5619   -1.2592 C.3     1  UNL1       -0.0105
      8 C           1.4167    2.0553   -0.0004 C.3     1  UNL1       -0.0313
      9 C          -0.0187    1.5258    0.0104 C.3     1  UNL1       -0.0450
     10 C           1.3960    3.5852    0.0080 C.3     1  UNL1       -0.0597
     11 C           2.1567    1.5485    1.2391 C.3     1  UNL1       -0.0597
     12 O           2.8332   -0.4362   -2.4623 O.3     1  UNL1       -0.4593
     13 C           3.4826   -1.6076   -2.3743 C.2     1  UNL1        0.3409
     14 O           3.4831   -2.2214   -1.3336 O.2     1  UNL1       -0.2475
     15 C           4.2110   -2.1573   -3.5736 C.3     1  UNL1        0.1767
     16 H           4.9202   -1.4148   -3.9397 H       1  UNL1        0.0762
     17 C           3.2177   -2.4814   -4.6596 C.ar    1  UNL1       -0.0084
     18 C           2.4966   -3.6596   -4.6075 C.ar    1  UNL1       -0.0556
     19 C           1.5826   -3.9550   -5.6016 C.ar    1  UNL1       -0.0614
     20 C           1.3960   -3.0764   -6.6523 C.ar    1  UNL1       -0.0617
     21 C           2.1206   -1.9004   -6.7069 C.ar    1  UNL1       -0.0614
     22 C           3.0318   -1.6031   -5.7108 C.ar    1  UNL1       -0.0556
     23 O           4.9139   -3.3444   -3.2012 O.3     1  UNL1       -0.3762
     24 H          -1.9605   -0.1726   -0.8702 H       1  UNL1        0.0232
     25 H          -1.4185   -1.6235    0.0069 H       1  UNL1        0.0232
     26 H          -1.9435   -0.1821    0.9097 H       1  UNL1        0.0232
     27 H           0.7330   -1.5874   -1.2628 H       1  UNL1        0.0303
     28 H           0.1910   -0.1364   -2.1398 H       1  UNL1        0.0303
     29 H           3.1554    1.9392   -1.2670 H       1  UNL1        0.0306
     30 H           1.6057    1.9230   -2.1423 H       1  UNL1        0.0306
     31 H          -0.5459    1.8868   -0.8726 H       1  UNL1        0.0273
     32 H          -0.5289    1.8773    0.9072 H       1  UNL1        0.0273
     33 H           0.8858    3.9367    0.9048 H       1  UNL1        0.0235
     34 H           2.4186    3.9625    0.0002 H       1  UNL1        0.0235
     35 H           0.8688    3.9463   -0.8751 H       1  UNL1        0.0235
     36 H           2.1715    0.4586    1.2331 H       1  UNL1        0.0235
     37 H           3.1793    1.9258    1.2314 H       1  UNL1        0.0235
     38 H           1.6465    1.9000    2.1359 H       1  UNL1        0.0235
     39 H           2.6451   -4.3478   -3.7886 H       1  UNL1        0.0621
     40 H           1.0168   -4.8740   -5.5592 H       1  UNL1        0.0618
     41 H           0.6844   -3.3088   -7.4308 H       1  UNL1        0.0618
     42 H           1.9751   -1.2141   -7.5280 H       1  UNL1        0.0618
     43 H           3.5982   -0.6845   -5.7536 H       1  UNL1        0.0621
     44 H           4.3441   -4.0499   -2.8655 H       1  UNL1        0.2110
@<TRIPOS>BOND
     1     1     2    1
     2     1    24    1
     3     1    25    1
     4     1    26    1
     5     2     3    1
     6     2     9    1
     7     2     4    1
     8     4     5    1
     9     4    27    1
    10     4    28    1
    11     5     6    1
    12     5     7    1
    13     5    12    1
    14     7     8    1
    15     7    29    1
    16     7    30    1
    17     8     9    1
    18     8    10    1
    19     8    11    1
    20     9    31    1
    21     9    32    1
    22    10    33    1
    23    10    34    1
    24    10    35    1
    25    11    36    1
    26    11    37    1
    27    11    38    1
    28    12    13    1
    29    13    14    2
    30    13    15    1
    31    15    16    1
    32    15    17    1
    33    15    23    1
    34    17    22   ar
    35    17    18   ar
    36    18    19   ar
    37    18    39    1
    38    19    20   ar
    39    19    40    1
    40    20    21   ar
    41    20    41    1
    42    21    22   ar
    43    21    42    1
    44    22    43    1
    45    23    44    1
