@<TRIPOS>MOLECULE
ZINC06072455
 31 32 0 0 0
SMALL
GASTEIGER

@<TRIPOS>ATOM
      1 C5M        -3.3684   -2.8361    4.9863 C.3     1    T1       -0.0332
      2 C5         -1.9445   -2.6239    4.5407 C.ar    1    T1        0.0302
      3 C6         -1.6624   -2.3843    3.2422 C.ar    1    T1        0.0199
      4 N1         -0.3640   -2.1935    2.8549 N.ar    1    T1       -0.2737
      5 C2          0.6346   -2.2474    3.7549 C.ar    1    T1        0.3313
      6 O2          1.7816   -2.0795    3.3882 O.2     1    T1       -0.2464
      7 N3          0.3812   -2.4794    5.0563 N.ar    1    T1       -0.2747
      8 H3          1.1349   -2.5085    5.7129 H       1    T1        0.1734
      9 C4         -0.8847   -2.6727    5.4782 C.ar    1    T1        0.2568
     10 O4         -1.1145   -2.8868    6.6548 O.2     1    T1       -0.2674
     11 C1*        -0.0578   -1.9340    1.4459 C.3     1    T1        0.1422
     12 H1*         0.5909   -2.7187    1.0567 H       1    T1        0.0840
     13 C2*         0.6367   -0.5624    1.3049 C.3     1    T1        0.0214
     14 C3*         0.0021   -0.0041    0.0020 C.3     1    T1        0.0876
     15 H3*         0.5185   -0.3827   -0.8800 H       1    T1        0.0621
     16 C4*        -1.4320   -0.5826    0.1008 C.3     1    T1        0.1100
     17 H4*        -2.0502    0.0460    0.7417 H       1    T1        0.0646
     18 O4*        -1.2710   -1.8850    0.6860 O.3     1    T1       -0.3483
     19 C5*        -2.0550   -0.6982   -1.2918 C.3     1    T1        0.0729
     20 O5*        -3.4143   -1.1222   -1.1718 O.3     1    T1       -0.3924
     21 O3*        -0.0173    1.4248    0.0099 O.3     1    T1       -0.3890
     22 H5M1       -3.6129   -3.8968    4.9289 H       1    T1        0.0280
     23 H5M2       -3.4826   -2.4920    6.0142 H       1    T1        0.0280
     24 H5M3       -4.0397   -2.2729    4.3379 H       1    T1        0.0280
     25 H6         -2.4578   -2.3438    2.5128 H       1    T1        0.0816
     26 H2*1        1.7140   -0.6830    1.1909 H       1    T1        0.0335
     27 H2*2        0.4078    0.0809    2.1545 H       1    T1        0.0335
     28 H5*1       -2.0194    0.2719   -1.7875 H       1    T1        0.0584
     29 H5*2       -1.4975   -1.4273   -1.8799 H       1    T1        0.0584
     30 H5*        -3.8729   -1.2171   -2.0178 H       1    T1        0.2095
     31 H3*         0.8606    1.8301    0.0037 H       1    T1        0.2099
@<TRIPOS>BOND
     1     1     2    1
     2     1    22    1
     3     1    23    1
     4     1    24    1
     5     2     9   ar
     6     2     3   ar
     7     3     4   ar
     8     3    25    1
     9     4     5   ar
    10     4    11    1
    11     5     6    2
    12     5     7   ar
    13     7     8    1
    14     7     9   ar
    15     9    10    2
    16    11    12    1
    17    11    18    1
    18    11    13    1
    19    13    14    1
    20    13    26    1
    21    13    27    1
    22    14    15    1
    23    14    16    1
    24    14    21    1
    25    16    17    1
    26    16    18    1
    27    16    19    1
    28    19    20    1
    29    19    28    1
    30    19    29    1
    31    20    30    1
    32    21    31    1
