@<TRIPOS>MOLECULE
ZINC00002098
 34 35 0 0 0
SMALL
GASTEIGER

@<TRIPOS>ATOM
      1 C           1.1161   -2.1706   -0.0203 C.3     1  UNL1       -0.0044
      2 C           1.1424   -0.6639   -0.0124 C.ar    1  UNL1        0.1319
      3 N           0.0021   -0.0041    0.0020 N.ar    1  UNL1       -0.2161
      4 C          -0.0160    1.3270    0.0093 C.ar    1  UNL1        0.1449
      5 C           1.1928    2.0189    0.0015 C.ar    1  UNL1        0.0412
      6 C           2.3714    1.2844   -0.0132 C.ar    1  UNL1        0.2194
      7 N           2.3050   -0.0442   -0.0198 N.ar    1  UNL1       -0.1981
      8 O           3.5725    1.9126   -0.0213 O.3     1  UNL1       -0.4795
      9 C           4.7373    1.0850   -0.0369 C.3     1  UNL1        0.0804
     10 N          -1.2197    2.0141    0.0188 N.pl3   1  UNL1       -0.1993
     11 S          -2.6498    1.1790    0.0211 S.O2    1  UNL1        0.0735
     12 O          -3.6868    2.1498    0.0584 O.2     1  UNL1       -0.1499
     13 O          -2.5536    0.2062   -1.0102 O.2     1  UNL1       -0.1499
     14 C          -2.7337    0.2938    1.5422 C.ar    1  UNL1        0.1087
     15 C          -2.2263   -0.9902    1.6221 C.ar    1  UNL1       -0.0333
     16 C          -2.2854   -1.6848    2.8143 C.ar    1  UNL1       -0.0392
     17 C          -2.8655   -1.0965    3.9310 C.ar    1  UNL1        0.0247
     18 C          -3.3792    0.1913    3.8458 C.ar    1  UNL1       -0.0392
     19 C          -3.3118    0.8824    2.6520 C.ar    1  UNL1       -0.0333
     20 N          -2.9316   -1.7981    5.1369 N.pl3   1  UNL1       -0.3580
     21 H           1.1000   -2.5284   -1.0497 H       1  UNL1        0.0308
     22 H           2.0045   -2.5521    0.4831 H       1  UNL1        0.0308
     23 H           0.2249   -2.5211    0.5002 H       1  UNL1        0.0308
     24 H           1.2130    3.0987    0.0071 H       1  UNL1        0.0706
     25 H           4.7444    0.4509    0.8496 H       1  UNL1        0.0660
     26 H           4.7274    0.4605   -0.9302 H       1  UNL1        0.0660
     27 H           5.6287    1.7123   -0.0421 H       1  UNL1        0.0660
     28 H          -1.2245    2.9841    0.0241 H       1  UNL1        0.1752
     29 H          -1.7797   -1.4487    0.7522 H       1  UNL1        0.0638
     30 H          -1.8850   -2.6858    2.8772 H       1  UNL1        0.0636
     31 H          -3.8312    0.6515    4.7120 H       1  UNL1        0.0636
     32 H          -3.7108    1.8838    2.5851 H       1  UNL1        0.0638
     33 H          -3.3366   -1.3861    5.9161 H       1  UNL1        0.1423
     34 H          -2.5725   -2.6972    5.1952 H       1  UNL1        0.1423
@<TRIPOS>BOND
     1     1     2    1
     2     1    21    1
     3     1    22    1
     4     1    23    1
     5     2     7   ar
     6     2     3   ar
     7     3     4   ar
     8     4     5   ar
     9     4    10    1
    10     5     6   ar
    11     5    24    1
    12     6     7   ar
    13     6     8    1
    14     8     9    1
    15     9    25    1
    16     9    26    1
    17     9    27    1
    18    10    11    1
    19    10    28    1
    20    11    12    2
    21    11    13    2
    22    11    14    1
    23    14    19   ar
    24    14    15   ar
    25    15    16   ar
    26    15    29    1
    27    16    17   ar
    28    16    30    1
    29    17    18   ar
    30    17    20    1
    31    18    19   ar
    32    18    31    1
    33    19    32    1
    34    20    33    1
    35    20    34    1
