@<TRIPOS>MOLECULE
ZINC03830853
 56 59 0 0 0
SMALL
GASTEIGER

@<TRIPOS>ATOM
      1 C           6.0770    0.3955    1.3052 C.3     1  UNL1       -0.0528
      2 C           5.3671   -0.8059    1.9223 C.3     1  UNL1        0.0263
      3 C           5.5620   -0.7433    3.4300 C.3     1  UNL1       -0.0339
      4 C           6.9264   -1.2621    3.8728 C.3     1  UNL1        0.0107
      5 C           7.0795   -2.6828    3.3724 C.2     1  UNL1        0.1561
      6 O           7.5417   -3.5578    4.0776 O.2     1  UNL1       -0.2927
      7 C           6.6680   -2.9446    1.9936 C.2     1  UNL1       -0.0194
      8 C           5.9138   -2.0781    1.3198 C.2     1  UNL1       -0.0572
      9 C           5.5824   -2.4451   -0.1150 C.3     1  UNL1       -0.0304
     10 C           4.0631   -2.3253   -0.3413 C.3     1  UNL1       -0.0432
     11 C           3.6925   -0.9110    0.0752 C.3     1  UNL1       -0.0000
     12 H           4.4415   -0.2521   -0.4166 H       1  UNL1        0.0335
     13 C           3.8740   -0.7809    1.5964 C.3     1  UNL1        0.1492
     14 C           3.0908    0.4338    2.0636 C.3     1  UNL1        0.0907
     15 H           3.2773    1.2805    1.4006 H       1  UNL1        0.0625
     16 C           1.5862    0.0744    2.0144 C.3     1  UNL1       -0.0151
     17 C           1.2502   -0.5733    0.6993 C.3     1  UNL1        0.0093
     18 C           2.3640   -0.3769   -0.3462 C.3     1  UNL1       -0.0266
     19 H           2.4891    0.7119   -0.5325 H       1  UNL1        0.0311
     20 C           1.7281   -0.9821   -1.6077 C.3     1  UNL1       -0.0462
     21 C           0.2392   -0.5536   -1.5036 C.3     1  UNL1       -0.0162
     22 C           0.0324   -0.0191   -0.0609 C.3     1  UNL1        0.1315
     23 C           0.0017    1.4808   -0.0673 C.2     1  UNL1        0.1902
     24 O           1.0341    2.1061   -0.0308 O.2     1  UNL1       -0.2919
     25 C          -1.3175    2.2072   -0.1254 C.3     1  UNL1        0.1052
     26 O          -1.0854    3.6172   -0.1204 O.3     1  UNL1       -0.3874
     27 O          -1.1694   -0.5522    0.4930 O.3     1  UNL1       -0.3804
     28 C           0.9656   -2.0690    0.9196 C.3     1  UNL1       -0.0562
     29 O           3.4251    0.7928    3.4026 O.3     1  UNL1       -0.3886
     30 F           3.3285   -1.9210    2.2174 F       1  UNL1       -0.2380
     31 H           5.6465    1.3151    1.7017 H       1  UNL1        0.0239
     32 H           7.1383    0.3560    1.5506 H       1  UNL1        0.0239
     33 H           5.9535    0.3739    0.2224 H       1  UNL1        0.0239
     34 H           4.7795   -1.3208    3.9156 H       1  UNL1        0.0279
     35 H           5.4900    0.3020    3.7443 H       1  UNL1        0.0279
     36 H           6.9817   -1.2447    4.8711 H       1  UNL1        0.0345
     37 H           7.7205   -0.6365    3.4641 H       1  UNL1        0.0345
     38 H           6.9917   -3.8554    1.5043 H       1  UNL1        0.0652
     39 H           5.8917   -3.4703   -0.3103 H       1  UNL1        0.0310
     40 H           6.0997   -1.7718   -0.7953 H       1  UNL1        0.0310
     41 H           3.5470   -3.0589    0.2693 H       1  UNL1        0.0272
     42 H           3.8423   -2.4792   -1.3953 H       1  UNL1        0.0272
     43 H           0.9977    0.9691    2.2009 H       1  UNL1        0.0297
     44 H           1.3774   -0.6342    2.8309 H       1  UNL1        0.0297
     45 H           2.1809   -0.5485   -2.5035 H       1  UNL1        0.0269
     46 H           1.8248   -2.0635   -1.6289 H       1  UNL1        0.0269
     47 H          -0.4099   -1.4096   -1.6800 H       1  UNL1        0.0297
     48 H           0.0267    0.2353   -2.2237 H       1  UNL1        0.0297
     49 H          -1.8019    1.9521   -0.9622 H       1  UNL1        0.0637
     50 H          -1.9206    1.9351    0.7408 H       1  UNL1        0.0637
     51 H          -1.8925    4.1487   -0.1562 H       1  UNL1        0.2100
     52 H          -1.9708   -0.2902    0.0194 H       1  UNL1        0.2108
     53 H           0.7095   -2.5341   -0.0324 H       1  UNL1        0.0236
     54 H           1.8521   -2.5506    1.3323 H       1  UNL1        0.0236
     55 H           0.1338   -2.1821    1.6147 H       1  UNL1        0.0236
     56 H           2.9299    1.5509    3.7418 H       1  UNL1        0.2099
@<TRIPOS>BOND
     1     1     2    1
     2     1    31    1
     3     1    32    1
     4     1    33    1
     5     2     8    1
     6     2    13    1
     7     2     3    1
     8     3     4    1
     9     3    34    1
    10     3    35    1
    11     4     5    1
    12     4    36    1
    13     4    37    1
    14     5     6    2
    15     5     7    1
    16     7     8    2
    17     7    38    1
    18     8     9    1
    19     9    10    1
    20     9    39    1
    21     9    40    1
    22    10    11    1
    23    10    41    1
    24    10    42    1
    25    11    12    1
    26    11    18    1
    27    11    13    1
    28    13    14    1
    29    13    30    1
    30    14    15    1
    31    14    16    1
    32    14    29    1
    33    16    17    1
    34    16    43    1
    35    16    44    1
    36    17    22    1
    37    17    18    1
    38    17    28    1
    39    18    19    1
    40    18    20    1
    41    20    21    1
    42    20    45    1
    43    20    46    1
    44    21    22    1
    45    21    47    1
    46    21    48    1
    47    22    23    1
    48    22    27    1
    49    23    24    2
    50    23    25    1
    51    25    26    1
    52    25    49    1
    53    25    50    1
    54    26    51    1
    55    27    52    1
    56    28    53    1
    57    28    54    1
    58    28    55    1
    59    29    56    1
