@<TRIPOS>MOLECULE
ZINC00895347
 14 13 0 0 0
SMALL
GASTEIGER

@<TRIPOS>ATOM
      1 CB          1.0180    3.6060    1.4324 C.3     1  CYS1        0.0391
      2 CA          1.2350    3.0943    0.0069 C.3     1  CYS1        0.0249
      3 HA          0.4562    3.4914   -0.6442 H       1  CYS1        0.0923
      4 C           1.1765    1.5884   -0.0006 C.2     1  CYS1        0.0901
      5 O           2.1986    0.9442   -0.0139 O.co2   1  CYS1       -0.5441
      6 SG          0.9409    5.4183    1.4191 S.3     1  CYS1       -0.1723
      7 HB1         0.0830    3.2053    1.8238 H       1  CYS1        0.0433
      8 HB2         1.8449    3.2821    2.0644 H       1  CYS1        0.0433
      9 H1          3.2893    3.1803    0.1103 H       1  CYS1        0.2001
     10 H2          2.6906    3.2654   -1.4389 H       1  CYS1        0.2001
     11 HG          0.7504    5.7453    2.7097 H       1  CYS1        0.1018
     12 OXT        -0.0110    0.9628    0.0073 O.co2   1  CYS1       -0.5441
     13 N           2.5472    3.5608   -0.4746 N.4     1  CYS1        0.2255
     14 H3          2.5780    4.5861   -0.4302 H       1  CYS1        0.2001
@<TRIPOS>UNITY_ATOM_ATTR
12 1
charge -1
13 1
charge 1
@<TRIPOS>BOND
     1     1     2    1
     2     1     6    1
     3     1     7    1
     4     1     8    1
     5     2     3    1
     6     2     4    1
     7     2    13    1
     8     4     5   ar
     9     4    12   ar
    10     6    11    1
    11     9    13    1
    12    10    13    1
    13    13    14    1
