@<TRIPOS>MOLECULE
ZINC03830402
 49 52 0 0 0
SMALL
GASTEIGER

@<TRIPOS>ATOM
      1 C           0.4781   -0.6897   -2.3177 C.ar    1  UNL1       -0.0493
      2 C           0.1156   -1.2298   -3.5365 C.ar    1  UNL1       -0.0197
      3 C          -1.1785   -1.6897   -3.7327 C.ar    1  UNL1        0.1169
      4 C          -2.1038   -1.6111   -2.7021 C.ar    1  UNL1       -0.0197
      5 C          -1.7348   -1.0753   -1.4834 C.ar    1  UNL1       -0.0493
      6 C          -0.4445   -0.6177   -1.2904 C.ar    1  UNL1        0.0093
      7 CA         -0.0446   -0.0336    0.0401 C.3     1  UNL1        0.0789
      8 HA         -0.7441   -0.3654    0.8075 H       1  UNL1        0.1002
      9 C          -0.0679    1.4708   -0.0443 C.2     1  UNL1        0.2665
     10 O           0.9659    2.0854   -0.2010 O.2     1  UNL1       -0.2692
     11 N          -1.2381    2.1330    0.0488 N.am    1  UNL1       -0.2968
     12 CA         -1.2607    3.5955   -0.0332 C.3     1  UNL1        0.1285
     13 HA         -0.3154    4.0467    0.2685 H       1  UNL1        0.0622
     14 C          -2.4682    4.2171    0.6490 C.3     1  UNL1        0.1041
     15 H          -3.2546    3.5263    0.9531 H       1  UNL1        0.0644
     16 N          -2.6341    4.8884   -0.6827 N.am    1  UNL1       -0.2533
     17 C          -1.7739    4.1123   -1.3590 C.2     1  UNL1        0.2438
     18 O          -1.5181    3.9120   -2.5276 O.2     1  UNL1       -0.2731
     19 CA         -3.4075    6.0380   -0.9374 C.2     1  UNL1        0.0607
     20 C          -3.7563    6.8473    0.0488 C.2     1  UNL1       -0.0264
     21 C          -3.4802    6.7046    1.5103 C.3     1  UNL1        0.0195
     22 S          -2.1072    5.5541    1.8302 S.3     1  UNL1       -0.1311
     23 C          -4.5333    8.0740   -0.3543 C.3     1  UNL1        0.0237
     24 S          -6.2927    7.8216    0.0083 S.3     1  UNL1       -0.0982
     25 C          -7.0549    9.3225   -0.5124 C.ar    1  UNL1        0.1387
     26 C          -8.3785    9.6265   -0.4540 C.ar    1  UNL1        0.0828
     27 N          -8.4974   10.8824   -0.9688 N.ar    1  UNL1       -0.1621
     28 H          -7.1245   12.1856   -1.7051 H       1  UNL1        0.2125
     29 N          -7.3239   11.2923   -1.3024 N.ar    1  UNL1       -0.1957
     30 N          -6.4442   10.3906   -1.0446 N.ar    1  UNL1       -0.1485
     31 C          -3.8324    6.3414   -2.3159 C.2     1  UNL1        0.0860
     32 O          -4.8618    5.8661   -2.7528 O.co2   1  UNL1       -0.5433
     33 O          -1.5389   -2.2168   -4.9324 O.3     1  UNL1       -0.5068
     34 H           1.4840   -0.3271   -2.1660 H       1  UNL1        0.0623
     35 H           0.8378   -1.2899   -4.3372 H       1  UNL1        0.0654
     36 H          -3.1117   -1.9688   -2.8523 H       1  UNL1        0.0654
     37 H          -2.4547   -1.0143   -0.6807 H       1  UNL1        0.0623
     38 H          -2.0653    1.6412    0.1701 H       1  UNL1        0.1497
     39 H          -3.2274    7.6821    1.9210 H       1  UNL1        0.0423
     40 H          -4.3771    6.3338    2.0065 H       1  UNL1        0.0423
     41 H          -4.1673    8.9357    0.2039 H       1  UNL1        0.0427
     42 H          -4.4042    8.2513   -1.4220 H       1  UNL1        0.0427
     43 H          -9.1734    9.0004   -0.0765 H       1  UNL1        0.0875
     44 H1          1.3379   -1.4846    0.5110 H       1  UNL1        0.2005
     45 H2          1.9779   -0.1885   -0.3115 H       1  UNL1        0.2005
     46 H          -1.8862   -1.5673   -5.5589 H       1  UNL1        0.2921
     47 OXT        -3.0792    7.1459   -3.0916 O.co2   1  UNL1       -0.5433
     48 N           1.3136   -0.4715    0.4070 N.4     1  UNL1        0.2307
     49 H3          1.5791   -0.0368    1.2986 H       1  UNL1        0.2005
@<TRIPOS>UNITY_ATOM_ATTR
47 1
charge -1
48 1
charge 1
@<TRIPOS>BOND
     1     1     6   ar
     2     1     2   ar
     3     1    34    1
     4     2     3   ar
     5     2    35    1
     6     3     4   ar
     7     3    33    1
     8     4     5   ar
     9     4    36    1
    10     5     6   ar
    11     5    37    1
    12     6     7    1
    13     7     8    1
    14     7     9    1
    15     7    48    1
    16     9    10    2
    17     9    11   am
    18    11    12    1
    19    11    38    1
    20    12    13    1
    21    12    17    1
    22    12    14    1
    23    14    15    1
    24    14    22    1
    25    14    16    1
    26    16    17   am
    27    16    19    1
    28    17    18    2
    29    19    20    2
    30    19    31    1
    31    20    21    1
    32    20    23    1
    33    21    22    1
    34    21    39    1
    35    21    40    1
    36    23    24    1
    37    23    41    1
    38    23    42    1
    39    24    25    1
    40    25    26   ar
    41    25    30   ar
    42    26    43    1
    43    26    27   ar
    44    27    29   ar
    45    28    29    1
    46    29    30   ar
    47    31    32   ar
    48    31    47   ar
    49    33    46    1
    50    44    48    1
    51    45    48    1
    52    48    49    1
