@<TRIPOS>MOLECULE
ZINC00154964
 41 42 0 0 0
SMALL
GASTEIGER

@<TRIPOS>ATOM
      1 C          -3.7863    3.8146   -3.4105 C.3     1  UNL1       -0.0379
      2 C          -3.0537    4.1481   -4.6846 C.ar    1  UNL1       -0.0290
      3 C          -3.7564    4.5729   -5.7951 C.ar    1  UNL1       -0.0571
      4 C          -3.0854    4.8741   -6.9661 C.ar    1  UNL1       -0.0611
      5 C          -1.7090    4.7562   -7.0278 C.ar    1  UNL1       -0.0571
      6 C          -1.0001    4.3365   -5.9193 C.ar    1  UNL1       -0.0290
      7 C          -1.6709    4.0332   -4.7418 C.ar    1  UNL1        0.0394
      8 N          -0.9557    3.6073   -3.6171 N.am    1  UNL1       -0.2804
      9 C          -1.1359    4.2220   -2.4313 C.2     1  UNL1        0.2655
     10 O          -1.8682    5.1856   -2.3529 O.2     1  UNL1       -0.2693
     11 C          -0.4275    3.7120   -1.2028 C.3     1  UNL1        0.0567
     12 H           0.5890    3.4189   -1.4654 H       1  UNL1        0.0950
     13 C          -1.1797    2.5011   -0.6463 C.3     1  UNL1       -0.0008
     14 C          -0.4678    1.9987    0.6129 C.3     1  UNL1       -0.0427
     15 C          -0.3919    3.1353    1.6361 C.3     1  UNL1       -0.0123
     16 C           0.3361    4.3285    1.0128 C.3     1  UNL1       -0.0314
     17 C           0.2087    6.0002   -0.7335 C.3     1  UNL1       -0.0424
     18 C           0.4999    4.2082   -5.9874 C.3     1  UNL1       -0.0379
     19 H          -3.9926    4.7321   -2.8593 H       1  UNL1        0.0278
     20 H          -4.7253    3.3163   -3.6511 H       1  UNL1        0.0278
     21 H          -3.1707    3.1543   -2.7996 H       1  UNL1        0.0278
     22 H          -4.8314    4.6661   -5.7502 H       1  UNL1        0.0621
     23 H          -3.6376    5.2018   -7.8345 H       1  UNL1        0.0618
     24 H          -1.1879    4.9921   -7.9438 H       1  UNL1        0.0621
     25 H          -0.3301    2.8696   -3.6909 H       1  UNL1        0.1550
     26 H          -1.1980    1.7087   -1.3945 H       1  UNL1        0.0325
     27 H          -2.2007    2.7895   -0.3965 H       1  UNL1        0.0325
     28 H          -1.0245    1.1632    1.0372 H       1  UNL1        0.0269
     29 H           0.5398    1.6721    0.3559 H       1  UNL1        0.0269
     30 H          -1.4000    3.4346    1.9230 H       1  UNL1        0.0317
     31 H           0.1521    2.7958    2.5175 H       1  UNL1        0.0317
     32 H           1.3490    4.0325    0.7399 H       1  UNL1        0.0814
     33 H           0.3783    5.1451    1.7336 H       1  UNL1        0.0814
     34 H          -0.3881    6.3480   -1.5767 H       1  UNL1        0.0778
     35 H           0.2285    6.7687    0.0392 H       1  UNL1        0.0778
     36 H           1.2255    5.7951   -1.0682 H       1  UNL1        0.0778
     37 H           0.7642    3.2013   -6.3106 H       1  UNL1        0.0278
     38 H           0.8947    4.9335   -6.6988 H       1  UNL1        0.0278
     39 H           0.9258    4.3970   -5.0019 H       1  UNL1        0.0278
     40 N          -0.4123    4.7792   -0.1797 N.4     1  UNL1        0.2418
     41 H          -1.3787    4.9916    0.0944 H       1  UNL1        0.2038
@<TRIPOS>UNITY_ATOM_ATTR
40 1
charge 1
@<TRIPOS>BOND
     1     1     2    1
     2     1    19    1
     3     1    20    1
     4     1    21    1
     5     2     7   ar
     6     2     3   ar
     7     3     4   ar
     8     3    22    1
     9     4     5   ar
    10     4    23    1
    11     5     6   ar
    12     5    24    1
    13     6     7   ar
    14     6    18    1
    15     7     8    1
    16     8     9   am
    17     8    25    1
    18     9    10    2
    19     9    11    1
    20    11    12    1
    21    11    13    1
    22    11    40    1
    23    13    14    1
    24    13    26    1
    25    13    27    1
    26    14    15    1
    27    14    28    1
    28    14    29    1
    29    15    16    1
    30    15    30    1
    31    15    31    1
    32    16    32    1
    33    16    33    1
    34    16    40    1
    35    17    34    1
    36    17    35    1
    37    17    36    1
    38    17    40    1
    39    18    37    1
    40    18    38    1
    41    18    39    1
    42    40    41    1
