@<TRIPOS>MOLECULE
ZINC11616742
 69 73 0 0 0
SMALL
GASTEIGER

@<TRIPOS>ATOM
      1 C           4.4176    3.8787   -1.3801 C.3     1  UNL1       -0.0583
      2 C           3.0324    4.4863   -1.1691 C.3     1  UNL1        0.0041
      3 H           2.3514    4.1346   -1.9478 H       1  UNL1        0.0341
      4 C           3.1013    6.0376   -1.2007 C.3     1  UNL1       -0.0426
      5 C           2.1011    6.4267   -0.0997 C.3     1  UNL1       -0.0253
      6 H           1.0891    6.1681   -0.4953 H       1  UNL1        0.0311
      7 C           2.0574    7.8455    0.3394 C.3     1  UNL1        0.0003
      8 H           1.2098    8.3308   -0.2075 H       1  UNL1        0.0336
      9 C           3.2810    8.7172    0.0703 C.3     1  UNL1       -0.0432
     10 C           2.7515   10.1585    0.0531 C.3     1  UNL1       -0.0301
     11 C           1.7476   10.4016    1.1466 C.2     1  UNL1       -0.0532
     12 C           1.2698   11.6610    1.2662 C.2     1  UNL1       -0.0148
     13 C           0.2519   11.9042    2.3158 C.2     1  UNL1        0.1787
     14 O           0.1717   12.9768    2.8992 O.2     1  UNL1       -0.2879
     15 C          -0.6669   10.7789    2.6190 C.2     1  UNL1       -0.0180
     16 C          -0.1608    9.5314    2.5022 C.2     1  UNL1       -0.0674
     17 C           1.2743    9.3772    2.1247 C.3     1  UNL1        0.0443
     18 C           1.7238    7.9748    1.8268 C.3     1  UNL1        0.1526
     19 C           0.7843    6.8570    2.2371 C.3     1  UNL1        0.0910
     20 H           0.4228    7.0314    3.2550 H       1  UNL1        0.0626
     21 C           1.5293    5.5076    2.1954 C.3     1  UNL1       -0.0141
     22 C           2.4552    5.4234    1.0133 C.3     1  UNL1        0.0208
     23 C           2.4687    4.1004    0.2246 C.3     1  UNL1        0.1814
     24 C           1.0916    3.5206    0.0692 C.2     1  UNL1        0.2024
     25 O           0.1252    4.2442    0.0964 O.2     1  UNL1       -0.2907
     26 C           0.9162    2.0360   -0.1206 C.3     1  UNL1        0.1063
     27 O          -0.4774    1.7212   -0.1526 O.3     1  UNL1       -0.3874
     28 O           3.3526    3.1515    0.8761 O.3     1  UNL1       -0.4459
     29 C           2.9534    2.6606    2.0653 C.2     1  UNL1        0.3401
     30 O           1.8526    2.9375    2.4980 O.2     1  UNL1       -0.2449
     31 C           3.8542    1.7858    2.8434 C.ar    1  UNL1        0.0590
     32 C           5.1180    1.4609    2.3464 C.ar    1  UNL1       -0.0478
     33 C           5.9561    0.6476    3.0805 C.ar    1  UNL1       -0.0610
     34 C           5.5428    0.1452    4.3017 C.ar    1  UNL1       -0.0617
     35 C           4.2896    0.4586    4.7975 C.ar    1  UNL1       -0.0610
     36 C           3.4435    1.2753    4.0764 C.ar    1  UNL1       -0.0478
     37 C           3.9041    5.6261    1.5011 C.3     1  UNL1       -0.0551
     38 O          -0.3387    6.8050    1.3521 O.3     1  UNL1       -0.3886
     39 F           2.9081    7.8313    2.5605 F       1  UNL1       -0.2377
     40 C           2.0436    9.7152    3.4137 C.3     1  UNL1       -0.0493
     41 H           4.3380    2.7918   -1.4021 H       1  UNL1        0.0234
     42 H           4.8292    4.2320   -2.3254 H       1  UNL1        0.0234
     43 H           5.0741    4.1785   -0.5632 H       1  UNL1        0.0234
     44 H           2.7564    6.4116   -2.1686 H       1  UNL1        0.0272
     45 H           4.1002    6.4005   -0.9928 H       1  UNL1        0.0272
     46 H           4.0225    8.6054    0.8562 H       1  UNL1        0.0272
     47 H           3.7157    8.4784   -0.8993 H       1  UNL1        0.0272
     48 H           3.5880   10.8444    0.1793 H       1  UNL1        0.0310
     49 H           2.2744   10.3456   -0.9099 H       1  UNL1        0.0310
     50 H           1.6198   12.4572    0.6135 H       1  UNL1        0.0656
     51 H          -1.6743   10.9334    2.9822 H       1  UNL1        0.0653
     52 H          -0.7958    8.6716    2.6901 H       1  UNL1        0.0583
     53 H           0.8008    4.6977    2.2213 H       1  UNL1        0.0298
     54 H           2.1277    5.4197    3.1214 H       1  UNL1        0.0298
     55 H           1.3506    1.5494    0.6374 H       1  UNL1        0.0638
     56 H           1.3788    1.7326   -1.0598 H       1  UNL1        0.0638
     57 H          -0.6654    0.7803   -0.2724 H       1  UNL1        0.2100
     58 H           5.4400    1.8487    1.3913 H       1  UNL1        0.0626
     59 H           6.9356    0.3991    2.6994 H       1  UNL1        0.0618
     60 H           6.2013   -0.4947    4.8704 H       1  UNL1        0.0618
     61 H           3.9732    0.0630    5.7514 H       1  UNL1        0.0618
     62 H           2.4656    1.5191    4.4646 H       1  UNL1        0.0626
     63 H           4.5483    5.8389    0.6480 H       1  UNL1        0.0237
     64 H           3.9387    6.4619    2.1999 H       1  UNL1        0.0237
     65 H           4.2494    4.7207    2.0003 H       1  UNL1        0.0237
     66 H          -0.9751    6.1088    1.5648 H       1  UNL1        0.2099
     67 H           1.7978   10.7294    3.7282 H       1  UNL1        0.0242
     68 H           1.7631    9.0132    4.1990 H       1  UNL1        0.0242
     69 H           3.1151    9.6423    3.2270 H       1  UNL1        0.0242
@<TRIPOS>BOND
     1     1     2    1
     2     1    41    1
     3     1    42    1
     4     1    43    1
     5     2     3    1
     6     2    23    1
     7     2     4    1
     8     4     5    1
     9     4    44    1
    10     4    45    1
    11     5     6    1
    12     5    22    1
    13     5     7    1
    14     7     8    1
    15     7    18    1
    16     7     9    1
    17     9    10    1
    18     9    46    1
    19     9    47    1
    20    10    11    1
    21    10    48    1
    22    10    49    1
    23    11    17    1
    24    11    12    2
    25    12    13    1
    26    12    50    1
    27    13    14    2
    28    13    15    1
    29    15    16    2
    30    15    51    1
    31    16    17    1
    32    16    52    1
    33    17    18    1
    34    17    40    1
    35    18    19    1
    36    18    39    1
    37    19    20    1
    38    19    21    1
    39    19    38    1
    40    21    22    1
    41    21    53    1
    42    21    54    1
    43    22    23    1
    44    22    37    1
    45    23    24    1
    46    23    28    1
    47    24    25    2
    48    24    26    1
    49    26    27    1
    50    26    55    1
    51    26    56    1
    52    27    57    1
    53    28    29    1
    54    29    30    2
    55    29    31    1
    56    31    36   ar
    57    31    32   ar
    58    32    33   ar
    59    32    58    1
    60    33    34   ar
    61    33    59    1
    62    34    35   ar
    63    34    60    1
    64    35    36   ar
    65    35    61    1
    66    36    62    1
    67    37    63    1
    68    37    64    1
    69    37    65    1
    70    38    66    1
    71    40    67    1
    72    40    68    1
    73    40    69    1
