@<TRIPOS>MOLECULE
ZINC05735567
 51 54 0 0 0
SMALL
GASTEIGER

@<TRIPOS>ATOM
      1 C           0.5638   -0.8267   -2.1862 C.3     1  UNL1       -0.0618
      2 C          -0.4183    0.0170   -3.0063 C.3     1  UNL1       -0.0365
      3 H          -1.4084   -0.4350   -2.9795 H       1  UNL1        0.0304
      4 C           0.0859   -0.0232   -4.4555 C.3     1  UNL1       -0.0282
      5 C          -0.6793    0.9208   -5.3535 C.2     1  UNL1       -0.0627
      6 C          -1.3715    1.9153   -4.8930 C.2     1  UNL1       -0.0661
      7 C          -2.1378    2.8845   -5.7702 C.3     1  UNL1       -0.0245
      8 C          -1.6093    2.9095   -7.1986 C.3     1  UNL1        0.0098
      9 C          -1.4907    1.4624   -7.6406 C.2     1  UNL1        0.1376
     10 O          -2.1070    1.0279   -8.5834 O.2     1  UNL1       -0.2971
     11 C          -0.5572    0.6017   -6.8321 C.3     1  UNL1        0.0272
     12 C          -1.4857    2.2160   -3.4140 C.3     1  UNL1       -0.0163
     13 H          -1.3168    3.2905   -3.2669 H       1  UNL1        0.0349
     14 C          -0.4494    1.4671   -2.5674 C.3     1  UNL1       -0.0282
     15 H           0.5400    1.9088   -2.8359 H       1  UNL1        0.0312
     16 C          -0.7002    1.7932   -1.1349 C.3     1  UNL1       -0.0284
     17 H          -0.5402    2.9081   -1.0567 H       1  UNL1        0.0310
     18 C           0.1417    1.2000   -0.0071 C.3     1  UNL1       -0.0458
     19 C          -0.5782    1.7854    1.2472 C.3     1  UNL1       -0.0118
     20 C          -2.0646    1.9472    0.8388 C.3     1  UNL1        0.1317
     21 C          -2.1357    1.5365   -0.6402 C.3     1  UNL1        0.0111
     22 C          -3.1098    2.3176   -1.4945 C.3     1  UNL1       -0.0433
     23 C          -2.9104    1.9013   -2.9606 C.3     1  UNL1       -0.0456
     24 C          -2.5017    0.0471   -0.6700 C.3     1  UNL1       -0.0558
     25 C          -2.4976    3.3349    1.0428 C.1     1  UNL1       -0.0704
     26 C          -2.8439    4.4447    1.2059 C.1     1  UNL1       -0.1163
     27 O          -2.8803    1.0620    1.6138 O.3     1  UNL1       -0.3760
     28 H           0.1848   -0.9408   -1.1706 H       1  UNL1        0.0233
     29 H           0.6714   -1.8089   -2.6463 H       1  UNL1        0.0233
     30 H           1.5339   -0.3303   -2.1583 H       1  UNL1        0.0233
     31 H          -0.0183   -1.0419   -4.8263 H       1  UNL1        0.0313
     32 H           1.1405    0.2514   -4.4580 H       1  UNL1        0.0313
     33 H          -3.1874    2.5925   -5.7856 H       1  UNL1        0.0314
     34 H          -2.0552    3.8846   -5.3447 H       1  UNL1        0.0314
     35 H          -0.7205    3.3674   -7.2172 H       1  UNL1        0.0345
     36 H          -2.3054    3.4423   -7.8463 H       1  UNL1        0.0345
     37 H           0.3805    0.7740   -7.1339 H       1  UNL1        0.0387
     38 H          -0.8033   -0.4472   -6.9963 H       1  UNL1        0.0387
     39 H           0.1026    0.1180    0.0421 H       1  UNL1        0.0269
     40 H           1.1699    1.5569   -0.0537 H       1  UNL1        0.0269
     41 H          -0.4904    1.0926    2.0816 H       1  UNL1        0.0303
     42 H          -0.1485    2.7516    1.5028 H       1  UNL1        0.0303
     43 H          -2.9233    3.3922   -1.4250 H       1  UNL1        0.0272
     44 H          -4.1350    2.1018   -1.1887 H       1  UNL1        0.0272
     45 H          -3.6055    2.4758   -3.5795 H       1  UNL1        0.0271
     46 H          -3.1171    0.8474   -3.0934 H       1  UNL1        0.0271
     47 H          -1.7544   -0.5218   -0.1170 H       1  UNL1        0.0236
     48 H          -3.4800   -0.0959   -0.2111 H       1  UNL1        0.0236
     49 H          -2.5309   -0.2992   -1.7031 H       1  UNL1        0.0236
     50 H          -3.1537    5.4373    1.3518 H       1  UNL1        0.1229
     51 H          -2.8855    1.2595    2.5604 H       1  UNL1        0.2114
@<TRIPOS>BOND
     1     1     2    1
     2     1    28    1
     3     1    29    1
     4     1    30    1
     5     2     3    1
     6     2    14    1
     7     2     4    1
     8     4     5    1
     9     4    31    1
    10     4    32    1
    11     5    11    1
    12     5     6    2
    13     6     7    1
    14     6    12    1
    15     7     8    1
    16     7    33    1
    17     7    34    1
    18     8     9    1
    19     8    35    1
    20     8    36    1
    21     9    10    2
    22     9    11    1
    23    11    37    1
    24    11    38    1
    25    12    13    1
    26    12    23    1
    27    12    14    1
    28    14    15    1
    29    14    16    1
    30    16    17    1
    31    16    21    1
    32    16    18    1
    33    18    19    1
    34    18    39    1
    35    18    40    1
    36    19    20    1
    37    19    41    1
    38    19    42    1
    39    20    21    1
    40    20    25    1
    41    20    27    1
    42    21    22    1
    43    21    24    1
    44    22    23    1
    45    22    43    1
    46    22    44    1
    47    23    45    1
    48    23    46    1
    49    24    47    1
    50    24    48    1
    51    24    49    1
    52    25    26    3
    53    26    50    1
    54    27    51    1
