@<TRIPOS>MOLECULE
ZINC03830600
 54 57 0 0 0
SMALL
GASTEIGER

@<TRIPOS>ATOM
      1 C           3.9658   -0.2403    0.2377 C.3     1  UNL1       -0.0552
      2 C           2.7871    0.0386   -0.6970 C.3     1  UNL1       -0.0005
      3 C           2.6799    1.5358   -0.9168 C.3     1  UNL1       -0.0363
      4 C           1.9675    2.2208    0.2640 C.3     1  UNL1        0.0107
      5 C           0.5896    1.5971    0.3703 C.2     1  UNL1        0.1561
      6 O          -0.4139    2.2750    0.4436 O.2     1  UNL1       -0.2927
      7 C           0.5325    0.1321    0.3738 C.2     1  UNL1       -0.0194
      8 C           1.5456   -0.5832   -0.1124 C.2     1  UNL1       -0.0597
      9 C           1.4349   -2.0951   -0.0481 C.3     1  UNL1       -0.0305
     10 C           1.8336   -2.7111   -1.3971 C.3     1  UNL1       -0.0456
     11 C           3.1920   -2.1517   -1.7866 C.3     1  UNL1       -0.0270
     12 H           3.8465   -2.2805   -0.9246 H       1  UNL1        0.0311
     13 C           3.0505   -0.6440   -2.0377 C.3     1  UNL1        0.0297
     14 H           2.2837   -0.4713   -2.6560 H       1  UNL1        0.0389
     15 C           4.2988   -0.1534   -2.7237 C.2     1  UNL1        0.1381
     16 O           5.0605    0.6241   -2.2006 O.2     1  UNL1       -0.2971
     17 C           4.5338   -0.7092   -4.1285 C.3     1  UNL1        0.0148
     18 C           3.6636   -1.9531   -4.2359 C.3     1  UNL1        0.0134
     19 C           3.8353   -2.8116   -2.9624 C.3     1  UNL1       -0.0286
     20 H           4.8967   -2.9348   -2.7467 H       1  UNL1        0.0310
     21 C           3.2387   -4.1597   -3.3912 C.3     1  UNL1       -0.0463
     22 C           3.7435   -4.3255   -4.8481 C.3     1  UNL1       -0.0162
     23 C           4.0546   -2.9053   -5.3673 C.3     1  UNL1        0.1318
     24 C           5.5239   -2.7727   -5.6750 C.2     1  UNL1        0.1902
     25 O           6.3295   -3.4424   -5.0742 O.2     1  UNL1       -0.2919
     26 C           5.9880   -1.8042   -6.7322 C.3     1  UNL1        0.1052
     27 O           7.4119   -1.8611   -6.8383 O.3     1  UNL1       -0.3874
     28 O           3.2781   -2.6300   -6.5349 O.3     1  UNL1       -0.3804
     29 C           2.1970   -1.5449   -4.3889 C.3     1  UNL1       -0.0559
     30 H           4.0287   -1.3107    0.4338 H       1  UNL1        0.0238
     31 H           4.8896    0.0980   -0.2315 H       1  UNL1        0.0238
     32 H           3.8188    0.2930    1.1769 H       1  UNL1        0.0238
     33 H           3.6824    1.9546   -1.0045 H       1  UNL1        0.0278
     34 H           2.1369    1.7208   -1.8437 H       1  UNL1        0.0278
     35 H           1.9021    3.2032    0.0893 H       1  UNL1        0.0345
     36 H           2.5206    2.0580    1.1890 H       1  UNL1        0.0345
     37 H          -0.3364   -0.3702    0.7726 H       1  UNL1        0.0652
     38 H           2.0963   -2.4731    0.7314 H       1  UNL1        0.0310
     39 H           0.4073   -2.3727    0.1864 H       1  UNL1        0.0310
     40 H           1.0957   -2.4476   -2.1549 H       1  UNL1        0.0271
     41 H           1.8947   -3.7954   -1.3041 H       1  UNL1        0.0271
     42 H           4.2761   -0.0209   -4.8067 H       1  UNL1        0.0348
     43 H           5.5840   -0.9709   -4.2580 H       1  UNL1        0.0348
     44 H           3.6148   -4.9648   -2.7599 H       1  UNL1        0.0269
     45 H           2.1497   -4.1246   -3.3632 H       1  UNL1        0.0269
     46 H           4.6484   -4.9330   -4.8632 H       1  UNL1        0.0297
     47 H           2.9711   -4.7905   -5.4606 H       1  UNL1        0.0297
     48 H           5.5783   -2.0486   -7.6111 H       1  UNL1        0.0637
     49 H           5.6841   -0.7940   -6.4581 H       1  UNL1        0.0637
     50 H           7.7811   -1.2622   -7.5017 H       1  UNL1        0.2100
     51 H           3.4818   -3.2029   -7.2868 H       1  UNL1        0.2108
     52 H           2.1414   -0.5207   -4.7577 H       1  UNL1        0.0236
     53 H           1.7058   -2.2130   -5.0964 H       1  UNL1        0.0236
     54 H           1.6988   -1.6103   -3.4216 H       1  UNL1        0.0236
@<TRIPOS>BOND
     1     1     2    1
     2     1    30    1
     3     1    31    1
     4     1    32    1
     5     2     8    1
     6     2    13    1
     7     2     3    1
     8     3     4    1
     9     3    33    1
    10     3    34    1
    11     4     5    1
    12     4    35    1
    13     4    36    1
    14     5     6    2
    15     5     7    1
    16     7     8    2
    17     7    37    1
    18     8     9    1
    19     9    10    1
    20     9    38    1
    21     9    39    1
    22    10    11    1
    23    10    40    1
    24    10    41    1
    25    11    12    1
    26    11    19    1
    27    11    13    1
    28    13    14    1
    29    13    15    1
    30    15    16    2
    31    15    17    1
    32    17    18    1
    33    17    42    1
    34    17    43    1
    35    18    23    1
    36    18    19    1
    37    18    29    1
    38    19    20    1
    39    19    21    1
    40    21    22    1
    41    21    44    1
    42    21    45    1
    43    22    23    1
    44    22    46    1
    45    22    47    1
    46    23    24    1
    47    23    28    1
    48    24    25    2
    49    24    26    1
    50    26    27    1
    51    26    48    1
    52    26    49    1
    53    27    50    1
    54    28    51    1
    55    29    52    1
    56    29    53    1
    57    29    54    1
