@<TRIPOS>MOLECULE
ZINC03831214
 52 55 0 0 0
SMALL
GASTEIGER

@<TRIPOS>ATOM
      1 C           6.0373   -2.3454   -0.1141 C.3     1  UNL1       -0.0627
      2 C           5.8497   -0.8490   -0.3724 C.3     1  UNL1       -0.0263
      3 C           4.5171   -0.3916    0.2242 C.3     1  UNL1        0.0715
      4 C           4.5132   -0.6143    1.7503 C.3     1  UNL1       -0.0232
      5 C           4.3216    0.7761    2.3949 C.3     1  UNL1       -0.0467
      6 C           3.6096    1.6061    1.2852 C.3     1  UNL1       -0.0298
      7 H           3.7116    2.6800    1.4410 H       1  UNL1        0.0310
      8 C           4.3368    1.1185    0.0205 C.3     1  UNL1       -0.0002
      9 C           3.5895    1.4491   -1.2515 C.3     1  UNL1       -0.0445
     10 C           2.1561    0.9247   -1.1936 C.3     1  UNL1       -0.0488
     11 C           1.4412    1.5774   -0.0032 C.3     1  UNL1       -0.0314
     12 H           1.4610    2.6631   -0.0982 H       1  UNL1        0.0309
     13 C           2.1436    1.1614    1.2853 C.3     1  UNL1       -0.0340
     14 H           2.0951    0.0775    1.3893 H       1  UNL1        0.0307
     15 C           1.4431    1.8087    2.4855 C.3     1  UNL1       -0.0460
     16 C           0.0148    1.2716    2.5918 C.3     1  UNL1       -0.0308
     17 C          -0.6969    1.5321    1.2625 C.2     1  UNL1       -0.0629
     18 C          -1.9003    2.1035    1.2839 C.2     1  UNL1       -0.0197
     19 C          -2.6353    2.3118    0.0314 C.2     1  UNL1        0.1561
     20 O          -3.5255    3.1313   -0.0577 O.2     1  UNL1       -0.2927
     21 C          -2.2239    1.4497   -1.1460 C.3     1  UNL1        0.0104
     22 C          -0.7081    1.5521   -1.2588 C.3     1  UNL1       -0.0392
     23 C          -0.0127    1.0858    0.0080 C.3     1  UNL1       -0.0160
     24 H           0.0021   -0.0041    0.0020 H       1  UNL1        0.0349
     25 C           5.7151    1.7792   -0.0464 C.3     1  UNL1       -0.0567
     26 O           3.4364   -1.1045   -0.3807 O.3     1  UNL1       -0.3880
     27 H           6.0370   -2.5315    0.9598 H       1  UNL1        0.0231
     28 H           5.2218   -2.8993   -0.5791 H       1  UNL1        0.0231
     29 H           6.9866   -2.6712   -0.5391 H       1  UNL1        0.0231
     30 H           5.8500   -0.6629   -1.4464 H       1  UNL1        0.0290
     31 H           6.6652   -0.2950    0.0926 H       1  UNL1        0.0290
     32 H           5.4625   -1.0458    2.0676 H       1  UNL1        0.0293
     33 H           3.6912   -1.2729    2.0307 H       1  UNL1        0.0293
     34 H           5.2860    1.2186    2.6443 H       1  UNL1        0.0269
     35 H           3.6920    0.7034    3.2817 H       1  UNL1        0.0269
     36 H           3.5702    2.5308   -1.3849 H       1  UNL1        0.0272
     37 H           4.1033    0.9930   -2.0977 H       1  UNL1        0.0272
     38 H           2.1677   -0.1576   -1.0644 H       1  UNL1        0.0268
     39 H           1.6359    1.1794   -2.1170 H       1  UNL1        0.0268
     40 H           1.9901    1.5699    3.3976 H       1  UNL1        0.0271
     41 H           1.4157    2.8899    2.3505 H       1  UNL1        0.0271
     42 H           0.0402    0.2021    2.8006 H       1  UNL1        0.0310
     43 H          -0.5122    1.7887    3.3937 H       1  UNL1        0.0310
     44 H          -2.3344    2.4136    2.2230 H       1  UNL1        0.0652
     45 H          -2.5098    0.5053   -0.9836 H       1  UNL1        0.0345
     46 H          -2.6910    1.8211   -2.0582 H       1  UNL1        0.0345
     47 H          -0.4271    2.5861   -1.4588 H       1  UNL1        0.0275
     48 H          -0.3838    0.9292   -2.0924 H       1  UNL1        0.0275
     49 H           6.2918    1.5070    0.8376 H       1  UNL1        0.0236
     50 H           6.2380    1.4392   -0.9403 H       1  UNL1        0.0236
     51 H           5.5974    2.8622   -0.0841 H       1  UNL1        0.0236
     52 H           3.4792   -2.0626   -0.2571 H       1  UNL1        0.2102
@<TRIPOS>BOND
     1     1     2    1
     2     1    27    1
     3     1    28    1
     4     1    29    1
     5     2     3    1
     6     2    30    1
     7     2    31    1
     8     3     8    1
     9     3     4    1
    10     3    26    1
    11     4     5    1
    12     4    32    1
    13     4    33    1
    14     5     6    1
    15     5    34    1
    16     5    35    1
    17     6     7    1
    18     6    13    1
    19     6     8    1
    20     8     9    1
    21     8    25    1
    22     9    10    1
    23     9    36    1
    24     9    37    1
    25    10    11    1
    26    10    38    1
    27    10    39    1
    28    11    12    1
    29    11    23    1
    30    11    13    1
    31    13    14    1
    32    13    15    1
    33    15    16    1
    34    15    40    1
    35    15    41    1
    36    16    17    1
    37    16    42    1
    38    16    43    1
    39    17    23    1
    40    17    18    2
    41    18    19    1
    42    18    44    1
    43    19    20    2
    44    19    21    1
    45    21    22    1
    46    21    45    1
    47    21    46    1
    48    22    23    1
    49    22    47    1
    50    22    48    1
    51    23    24    1
    52    25    49    1
    53    25    50    1
    54    25    51    1
    55    26    52    1
