@<TRIPOS>MOLECULE
ZINC08132748
 30 30 0 0 0
SMALL
GASTEIGER

@<TRIPOS>ATOM
      1 C           1.1579    5.3758   -2.1443 C.3     1  UNL1       -0.0187
      2 C          -0.0912    5.8648   -1.4085 C.3     1  UNL1       -0.0137
      3 C          -1.3403    5.3417   -2.1206 C.3     1  UNL1       -0.0187
      4 C          -0.0705    5.3471    0.0311 C.3     1  UNL1        0.0178
      5 C          -0.0501    3.8402    0.0228 C.ar    1  UNL1       -0.0418
      6 C           1.1563    3.1654    0.0076 C.ar    1  UNL1       -0.0584
      7 C           1.1750    1.7832    0.0004 C.ar    1  UNL1       -0.0615
      8 C          -0.0126    1.0758    0.0080 C.ar    1  UNL1       -0.0617
      9 C          -1.2190    1.7506    0.0173 C.ar    1  UNL1       -0.0615
     10 C          -1.2377    3.1328    0.0299 C.ar    1  UNL1       -0.0584
     11 C          -0.1314    7.8674   -2.7688 C.3     1  UNL1       -0.0444
     12 H           1.1726    4.2859   -2.1504 H       1  UNL1        0.0287
     13 H           1.1431    5.7446   -3.1699 H       1  UNL1        0.0287
     14 H           2.0477    5.7484   -1.6370 H       1  UNL1        0.0287
     15 H          -2.2301    5.6901   -1.5964 H       1  UNL1        0.0287
     16 H          -1.3550    5.7106   -3.1462 H       1  UNL1        0.0287
     17 H          -1.3255    4.2519   -2.1267 H       1  UNL1        0.0287
     18 H          -0.9604    5.6955    0.5554 H       1  UNL1        0.0371
     19 H           0.8193    5.7197    0.5385 H       1  UNL1        0.0371
     20 H           2.0842    3.7181    0.0017 H       1  UNL1        0.0620
     21 H           2.1175    1.2560   -0.0115 H       1  UNL1        0.0618
     22 H           0.0021   -0.0041    0.0020 H       1  UNL1        0.0618
     23 H          -2.1469    1.1980    0.0188 H       1  UNL1        0.0618
     24 H          -2.1802    3.6600    0.0414 H       1  UNL1        0.0620
     25 H          -0.1459    8.9568   -2.7337 H       1  UNL1        0.0777
     26 H           0.7582    7.5329   -3.3025 H       1  UNL1        0.0777
     27 H          -1.0215    7.5087   -3.2856 H       1  UNL1        0.0777
     28 N          -0.1111    7.3396   -1.3915 N.4     1  UNL1        0.2290
     29 H           0.7273    7.6841   -0.9091 H       1  UNL1        0.2016
     30 H          -0.9492    7.6613   -0.8931 H       1  UNL1        0.2016
@<TRIPOS>UNITY_ATOM_ATTR
28 1
charge 1
@<TRIPOS>BOND
     1     1     2    1
     2     1    12    1
     3     1    13    1
     4     1    14    1
     5     2     3    1
     6     2     4    1
     7     2    28    1
     8     3    15    1
     9     3    16    1
    10     3    17    1
    11     4     5    1
    12     4    18    1
    13     4    19    1
    14     5    10   ar
    15     5     6   ar
    16     6     7   ar
    17     6    20    1
    18     7     8   ar
    19     7    21    1
    20     8     9   ar
    21     8    22    1
    22     9    10   ar
    23     9    23    1
    24    10    24    1
    25    11    25    1
    26    11    26    1
    27    11    27    1
    28    11    28    1
    29    28    29    1
    30    28    30    1
