@<TRIPOS>MOLECULE
ZINC00537804
 58 60 0 0 0
SMALL
GASTEIGER

@<TRIPOS>ATOM
      1 C           4.8825    2.5344   -0.0326 C.3     1  UNL1       -0.0037
      2 C           3.3756    2.5223   -0.0175 C.ar    1  UNL1        0.1350
      3 C           2.5763    1.4304   -0.0149 C.ar    1  UNL1        0.0125
      4 C           1.2599    1.9698    0.0006 C.ar    1  UNL1        0.1678
      5 N           1.4005    3.2721    0.0005 N.ar    1  UNL1       -0.0734
      6 O           2.5668    3.5907   -0.0044 O.2     1  UNL1       -0.3592
      7 C          -0.0144    1.2108    0.0087 C.2     1  UNL1        0.2657
      8 O           0.0021   -0.0041    0.0020 O.2     1  UNL1       -0.2684
      9 N          -1.1906    1.8687    0.0179 N.am    1  UNL1       -0.3097
     10 C          -2.4493    1.1190    0.0197 C.3     1  UNL1        0.0159
     11 C          -3.6256    2.0974    0.0306 C.3     1  UNL1       -0.0120
     12 C          -4.9203    1.3262    0.0326 C.ar    1  UNL1       -0.0458
     13 C          -5.5227    0.9839   -1.1636 C.ar    1  UNL1       -0.0567
     14 C          -6.7081    0.2728   -1.1618 C.ar    1  UNL1       -0.0348
     15 C          -7.2958   -0.0882    0.0362 C.ar    1  UNL1        0.1086
     16 C          -6.6961    0.2586    1.2324 C.ar    1  UNL1       -0.0348
     17 C          -5.5085    0.9660    1.2306 C.ar    1  UNL1       -0.0567
     18 S          -8.8090   -0.9909    0.0384 S.O2    1  UNL1        0.0756
     19 O          -8.8820   -1.6645   -1.2107 O.2     1  UNL1       -0.1499
     20 O          -8.8692   -1.6796    1.2799 O.2     1  UNL1       -0.1499
     21 N         -10.0399    0.1168    0.0515 N.am    1  UNL1       -0.1683
     22 C         -10.2163    0.9406   -1.0005 C.2     1  UNL1        0.3327
     23 O          -9.4716    0.8706   -1.9591 O.2     1  UNL1       -0.2499
     24 N         -11.2181    1.8422   -0.9899 N.am    1  UNL1       -0.2309
     25 N         -12.0547    1.9209    0.0871 N.3     1  UNL1       -0.2258
     26 C         -13.4160    1.4580   -0.2638 C.3     1  UNL1        0.0168
     27 C         -14.4327    1.7770    0.7982 C.3     1  UNL1       -0.0386
     28 C         -15.1016    3.1226    0.4473 C.3     1  UNL1       -0.0518
     29 C         -14.2614    4.2629    0.7962 C.3     1  UNL1       -0.0518
     30 C         -12.9187    4.2516    0.0358 C.3     1  UNL1       -0.0386
     31 C         -12.0002    3.2651    0.7039 C.3     1  UNL1        0.0168
     32 H           5.2354    2.5425   -1.0638 H       1  UNL1        0.0309
     33 H           5.2438    3.4247    0.4821 H       1  UNL1        0.0309
     34 H           5.2581    1.6448    0.4730 H       1  UNL1        0.0309
     35 H           2.8696    0.3910   -0.0227 H       1  UNL1        0.0676
     36 H          -1.2038    2.8386    0.0232 H       1  UNL1        0.1491
     37 H          -2.5027    0.4965   -0.8734 H       1  UNL1        0.0465
     38 H          -2.4943    0.4868    0.9065 H       1  UNL1        0.0465
     39 H          -3.5721    2.7199    0.9238 H       1  UNL1        0.0328
     40 H          -3.5806    2.7296   -0.8561 H       1  UNL1        0.0328
     41 H          -5.0655    1.2692   -2.0995 H       1  UNL1        0.0621
     42 H          -7.1765    0.0015   -2.0964 H       1  UNL1        0.0637
     43 H          -7.1552   -0.0234    2.1684 H       1  UNL1        0.0637
     44 H          -5.0399    1.2370    2.1652 H       1  UNL1        0.0621
     45 H         -10.6340    0.1727    0.8162 H       1  UNL1        0.1782
     46 H         -11.3450    2.4351   -1.7470 H       1  UNL1        0.1708
     47 H         -13.7199    1.9346   -1.1958 H       1  UNL1        0.0443
     48 H         -13.3922    0.3788   -0.4149 H       1  UNL1        0.0443
     49 H         -13.9386    1.8552    1.7666 H       1  UNL1        0.0278
     50 H         -15.1869    0.9907    0.8311 H       1  UNL1        0.0278
     51 H         -16.0453    3.2000    0.9874 H       1  UNL1        0.0266
     52 H         -15.3042    3.1469   -0.6234 H       1  UNL1        0.0266
     53 H         -14.0615    4.2404    1.8675 H       1  UNL1        0.0266
     54 H         -14.7965    5.1816    0.5557 H       1  UNL1        0.0266
     55 H         -12.4726    5.2457    0.0656 H       1  UNL1        0.0278
     56 H         -13.0835    3.9551   -1.0000 H       1  UNL1        0.0278
     57 H         -12.2786    3.1813    1.7544 H       1  UNL1        0.0443
     58 H         -10.9785    3.6398    0.6404 H       1  UNL1        0.0443
@<TRIPOS>BOND
     1     1     2    1
     2     1    32    1
     3     1    33    1
     4     1    34    1
     5     2     6   ar
     6     2     3   ar
     7     3     4   ar
     8     3    35    1
     9     4     5   ar
    10     4     7    1
    11     5     6   ar
    12     7     8    2
    13     7     9   am
    14     9    10    1
    15     9    36    1
    16    10    11    1
    17    10    37    1
    18    10    38    1
    19    11    12    1
    20    11    39    1
    21    11    40    1
    22    12    17   ar
    23    12    13   ar
    24    13    14   ar
    25    13    41    1
    26    14    15   ar
    27    14    42    1
    28    15    16   ar
    29    15    18    1
    30    16    17   ar
    31    16    43    1
    32    17    44    1
    33    18    19    2
    34    18    20    2
    35    18    21    1
    36    21    22   am
    37    21    45    1
    38    22    23    2
    39    22    24   am
    40    24    25    1
    41    24    46    1
    42    25    31    1
    43    25    26    1
    44    26    27    1
    45    26    47    1
    46    26    48    1
    47    27    28    1
    48    27    49    1
    49    27    50    1
    50    28    29    1
    51    28    51    1
    52    28    52    1
    53    29    30    1
    54    29    53    1
    55    29    54    1
    56    30    31    1
    57    30    55    1
    58    30    56    1
    59    31    57    1
    60    31    58    1
