@<TRIPOS>MOLECULE
ZINC01530751
 58 59 0 0 0
SMALL
GASTEIGER

@<TRIPOS>ATOM
      1 C           6.8617    2.6946    1.8803 C.3     1  UNL1       -0.0244
      2 C           5.6395    3.5688    2.1684 C.3     1  UNL1       -0.0339
      3 C           6.6879    5.4819    1.1177 C.3     1  UNL1       -0.0339
      4 C           6.6530    6.3855    2.3519 C.3     1  UNL1       -0.0244
      5 C           5.3085    3.9852   -0.1938 C.3     1  UNL1        0.0310
      6 C           4.0049    3.3021   -0.2188 C.1     1  UNL1       -0.0495
      7 C           2.9651    2.7573   -0.2388 C.1     1  UNL1       -0.0562
      8 C           1.6615    2.0742   -0.2639 C.3     1  UNL1        0.1531
      9 O           0.6056    3.0368   -0.0051 O.3     1  UNL1       -0.4495
     10 C          -0.6535    2.5718    0.0065 C.2     1  UNL1        0.3449
     11 O          -0.8663    1.3992   -0.1930 O.2     1  UNL1       -0.2471
     12 C          -1.8021    3.5132    0.2622 C.3     1  UNL1        0.1902
     13 C          -2.2058    4.1756   -1.0299 C.ar    1  UNL1       -0.0051
     14 C          -3.1617    3.5891   -1.8381 C.ar    1  UNL1       -0.0553
     15 C          -3.5352    4.1989   -3.0211 C.ar    1  UNL1       -0.0614
     16 C          -2.9462    5.3907   -3.4003 C.ar    1  UNL1       -0.0617
     17 C          -1.9865    5.9745   -2.5947 C.ar    1  UNL1       -0.0614
     18 C          -1.6162    5.3669   -1.4095 C.ar    1  UNL1       -0.0553
     19 C          -2.9887    2.7288    0.8257 C.3     1  UNL1        0.0026
     20 C          -4.1549    3.6847    1.0852 C.3     1  UNL1       -0.0467
     21 C          -5.3415    2.9003    1.6487 C.3     1  UNL1       -0.0527
     22 C          -4.9316    2.2278    2.9605 C.3     1  UNL1       -0.0530
     23 C          -3.7655    1.2720    2.7009 C.3     1  UNL1       -0.0527
     24 C          -2.5788    2.0563    2.1374 C.3     1  UNL1       -0.0467
     25 O          -1.4001    4.5105    1.2034 O.3     1  UNL1       -0.3730
     26 H           6.7604    2.2423    0.8937 H       1  UNL1        0.0281
     27 H           7.7620    3.3083    1.9079 H       1  UNL1        0.0281
     28 H           6.9332    1.9104    2.6339 H       1  UNL1        0.0281
     29 H           5.7572    4.0491    3.1398 H       1  UNL1        0.0812
     30 H           4.7430    2.9490    2.1758 H       1  UNL1        0.0812
     31 H           7.5972    4.8811    1.1329 H       1  UNL1        0.0812
     32 H           6.6731    6.0959    0.2173 H       1  UNL1        0.0812
     33 H           5.7433    6.9858    2.3370 H       1  UNL1        0.0281
     34 H           6.6684    5.7715    3.2523 H       1  UNL1        0.0281
     35 H           7.5224    7.0430    2.3455 H       1  UNL1        0.0281
     36 H           6.1011    3.2626   -0.3880 H       1  UNL1        0.0959
     37 H           5.3275    4.7601   -0.9601 H       1  UNL1        0.0959
     38 H           1.6425    1.2993    0.5024 H       1  UNL1        0.0838
     39 H           1.5077    1.6207   -1.2431 H       1  UNL1        0.0838
     40 H          -3.6191    2.6561   -1.5436 H       1  UNL1        0.0621
     41 H          -4.2852    3.7430   -3.6503 H       1  UNL1        0.0618
     42 H          -3.2361    5.8658   -4.3259 H       1  UNL1        0.0618
     43 H          -1.5264    6.9056   -2.8910 H       1  UNL1        0.0618
     44 H          -0.8664    5.8230   -0.7801 H       1  UNL1        0.0621
     45 H          -3.2953    1.9682    0.1077 H       1  UNL1        0.0337
     46 H          -3.8483    4.4454    1.8032 H       1  UNL1        0.0269
     47 H          -4.4469    4.1638    0.1507 H       1  UNL1        0.0269
     48 H          -5.6481    2.1396    0.9308 H       1  UNL1        0.0265
     49 H          -6.1723    3.5813    1.8337 H       1  UNL1        0.0265
     50 H          -5.7770    1.6690    3.3619 H       1  UNL1        0.0265
     51 H          -4.6250    2.9885    3.6784 H       1  UNL1        0.0265
     52 H          -4.0721    0.5113    1.9829 H       1  UNL1        0.0265
     53 H          -3.4735    0.7928    3.6354 H       1  UNL1        0.0265
     54 H          -1.7481    1.3754    1.9525 H       1  UNL1        0.0269
     55 H          -2.2722    2.8170    2.8554 H       1  UNL1        0.0269
     56 H          -1.1263    4.1551    2.0601 H       1  UNL1        0.2113
     57 N           5.4927    4.6124    1.1319 N.4     1  UNL1        0.2437
     58 H           4.6673    5.1835    1.3483 H       1  UNL1        0.2043
@<TRIPOS>UNITY_ATOM_ATTR
57 1
charge 1
@<TRIPOS>BOND
     1     1     2    1
     2     1    26    1
     3     1    27    1
     4     1    28    1
     5     2    29    1
     6     2    30    1
     7     2    57    1
     8     3     4    1
     9     3    31    1
    10     3    32    1
    11     3    57    1
    12     4    33    1
    13     4    34    1
    14     4    35    1
    15     5     6    1
    16     5    36    1
    17     5    37    1
    18     5    57    1
    19     6     7    3
    20     7     8    1
    21     8     9    1
    22     8    38    1
    23     8    39    1
    24     9    10    1
    25    10    11    2
    26    10    12    1
    27    12    13    1
    28    12    19    1
    29    12    25    1
    30    13    18   ar
    31    13    14   ar
    32    14    15   ar
    33    14    40    1
    34    15    16   ar
    35    15    41    1
    36    16    17   ar
    37    16    42    1
    38    17    18   ar
    39    17    43    1
    40    18    44    1
    41    19    24    1
    42    19    20    1
    43    19    45    1
    44    20    21    1
    45    20    46    1
    46    20    47    1
    47    21    22    1
    48    21    48    1
    49    21    49    1
    50    22    23    1
    51    22    50    1
    52    22    51    1
    53    23    24    1
    54    23    52    1
    55    23    53    1
    56    24    54    1
    57    24    55    1
    58    25    56    1
    59    57    58    1
