@<TRIPOS>MOLECULE
ZINC00897308
 32 33 0 0 0
SMALL
GASTEIGER

@<TRIPOS>ATOM
      1 C           2.8775   -0.4240   -2.3958 C.3     1  UNL1       -0.0188
      2 C           2.1303    0.0503   -1.1477 C.3     1  UNL1        0.0071
      3 H           2.6433   -0.3120   -0.2568 H       1  UNL1        0.0877
      4 C           2.0882    1.5806   -1.1277 C.3     1  UNL1        0.1260
      5 H           1.6241    1.9439   -2.0446 H       1  UNL1        0.0703
      6 O           1.3249    2.0168    0.0002 O.3     1  UNL1       -0.3611
      7 C          -0.0187    1.5267    0.0104 C.3     1  UNL1        0.0886
      8 C           0.0021   -0.0041    0.0020 C.3     1  UNL1       -0.0078
      9 C           0.7524   -1.9393   -1.2466 C.3     1  UNL1       -0.0427
     10 C           3.4912    2.1213   -1.0254 C.ar    1  UNL1       -0.0135
     11 C           4.1281    2.1630    0.2008 C.ar    1  UNL1       -0.0559
     12 C           5.4168    2.6545    0.2939 C.ar    1  UNL1       -0.0614
     13 C           6.0646    3.1140   -0.8375 C.ar    1  UNL1       -0.0617
     14 C           5.4258    3.0772   -2.0628 C.ar    1  UNL1       -0.0614
     15 C           4.1390    2.5808   -2.1568 C.ar    1  UNL1       -0.0559
     16 H           2.3649   -0.0601   -3.2863 H       1  UNL1        0.0285
     17 H           3.8960   -0.0362   -2.3788 H       1  UNL1        0.0285
     18 H           2.9038   -1.5136   -2.4114 H       1  UNL1        0.0285
     19 H          -0.5448    1.8885   -0.8730 H       1  UNL1        0.0614
     20 H          -0.5278    1.8789    0.9076 H       1  UNL1        0.0614
     21 H           0.4808   -0.3666    0.9117 H       1  UNL1        0.0837
     22 H          -1.0193   -0.3817   -0.0471 H       1  UNL1        0.0837
     23 H          -0.2678   -2.2924   -1.3971 H       1  UNL1        0.0778
     24 H           1.3751   -2.2611   -2.0813 H       1  UNL1        0.0778
     25 H           1.1468   -2.3529   -0.3185 H       1  UNL1        0.0778
     26 H           3.6203    1.8081    1.0854 H       1  UNL1        0.0621
     27 H           5.9158    2.6836    1.2512 H       1  UNL1        0.0618
     28 H           7.0698    3.5021   -0.7640 H       1  UNL1        0.0618
     29 H           5.9318    3.4365   -2.9467 H       1  UNL1        0.0618
     30 H           3.6398    2.5523   -3.1140 H       1  UNL1        0.0621
     31 N           0.7442   -0.4614   -1.1914 N.4     1  UNL1        0.2387
     32 H           0.2804   -0.0986   -2.0325 H       1  UNL1        0.2035
@<TRIPOS>UNITY_ATOM_ATTR
31 1
charge 1
@<TRIPOS>BOND
     1     1     2    1
     2     1    16    1
     3     1    17    1
     4     1    18    1
     5     2     3    1
     6     2     4    1
     7     2    31    1
     8     4     5    1
     9     4     6    1
    10     4    10    1
    11     6     7    1
    12     7     8    1
    13     7    19    1
    14     7    20    1
    15     8    21    1
    16     8    22    1
    17     8    31    1
    18     9    23    1
    19     9    24    1
    20     9    25    1
    21     9    31    1
    22    10    15   ar
    23    10    11   ar
    24    11    12   ar
    25    11    26    1
    26    12    13   ar
    27    12    27    1
    28    13    14   ar
    29    13    28    1
    30    14    15   ar
    31    14    29    1
    32    15    30    1
    33    31    32    1
