@<TRIPOS>MOLECULE
ZINC03831535
 51 54 0 0 0
SMALL
GASTEIGER

@<TRIPOS>ATOM
      1 C           4.8558    5.4734    0.1453 C.3     1  UNL1       -0.0618
      2 C           4.9541    3.9517    0.0203 C.3     1  UNL1       -0.0365
      3 H           5.2130    3.5168    0.9857 H       1  UNL1        0.0304
      4 C           6.0099    3.5843   -1.0147 C.3     1  UNL1       -0.0282
      5 C           5.5678    3.9119   -2.4262 C.2     1  UNL1       -0.0627
      6 C           4.3291    4.1355   -2.7495 C.2     1  UNL1       -0.0661
      7 C           3.8566    4.3745   -4.1671 C.3     1  UNL1       -0.0245
      8 C           4.9648    4.9327   -5.0521 C.3     1  UNL1        0.0098
      9 C           6.1799    4.0506   -4.8332 C.2     1  UNL1        0.1376
     10 O           6.6940    3.4365   -5.7370 O.2     1  UNL1       -0.2971
     11 C           6.7079    3.9848   -3.4252 C.3     1  UNL1        0.0272
     12 C           3.2228    4.1498   -1.7172 C.3     1  UNL1       -0.0163
     13 H           3.0047    5.1826   -1.4454 H       1  UNL1        0.0349
     14 C           3.6180    3.3820   -0.4658 C.3     1  UNL1       -0.0282
     15 H           3.7412    2.3273   -0.7120 H       1  UNL1        0.0312
     16 C           2.5477    3.5306    0.6160 C.3     1  UNL1       -0.0284
     17 H           2.5288    4.5374    1.0332 H       1  UNL1        0.0310
     18 C           2.8471    2.4576    1.6957 C.3     1  UNL1       -0.0458
     19 C           2.0628    1.1981    1.2845 C.3     1  UNL1       -0.0118
     20 C           1.2864    1.5618   -0.0018 C.3     1  UNL1        0.1317
     21 C           1.1755    3.0965    0.0619 C.3     1  UNL1        0.0111
     22 C           0.8310    3.7116   -1.2681 C.3     1  UNL1       -0.0433
     23 C           1.9515    3.5206   -2.2924 C.3     1  UNL1       -0.0456
     24 C           0.0874    3.4787    1.0673 C.3     1  UNL1       -0.0558
     25 C           2.0390    1.1457   -1.1965 C.1     1  UNL1       -0.0704
     26 C           2.6393    0.8139   -2.1493 C.1     1  UNL1       -0.1163
     27 O          -0.0110    0.9628    0.0073 O.3     1  UNL1       -0.3760
     28 H           4.0741    5.7295    0.8604 H       1  UNL1        0.0233
     29 H           5.8095    5.8719    0.4914 H       1  UNL1        0.0233
     30 H           4.6139    5.9030   -0.8268 H       1  UNL1        0.0233
     31 H           6.9261    4.1324   -0.7950 H       1  UNL1        0.0313
     32 H           6.2144    2.5158   -0.9472 H       1  UNL1        0.0313
     33 H           3.5079    3.4316   -4.5881 H       1  UNL1        0.0314
     34 H           3.0271    5.0814   -4.1497 H       1  UNL1        0.0314
     35 H           4.6708    4.9114   -6.0077 H       1  UNL1        0.0345
     36 H           5.1905    5.9596   -4.7646 H       1  UNL1        0.0345
     37 H           7.2537    4.8040   -3.2489 H       1  UNL1        0.0387
     38 H           7.3358    3.1002   -3.3184 H       1  UNL1        0.0387
     39 H           2.5109    2.8056    2.6724 H       1  UNL1        0.0269
     40 H           3.9151    2.2414    1.7222 H       1  UNL1        0.0269
     41 H           1.3660    0.9176    2.0744 H       1  UNL1        0.0303
     42 H           2.7514    0.3769    1.0854 H       1  UNL1        0.0303
     43 H           0.6534    4.7783   -1.1315 H       1  UNL1        0.0272
     44 H          -0.0791    3.2466   -1.6473 H       1  UNL1        0.0272
     45 H           1.6855    4.0143   -3.2270 H       1  UNL1        0.0271
     46 H           2.1132    2.4571   -2.4687 H       1  UNL1        0.0271
     47 H           0.3358    3.0670    2.0455 H       1  UNL1        0.0236
     48 H           0.0217    4.5645    1.1362 H       1  UNL1        0.0236
     49 H          -0.8703    3.0770    0.7365 H       1  UNL1        0.0236
     50 H           3.1761    0.5172   -3.0015 H       1  UNL1        0.1229
     51 H           0.0021   -0.0041    0.0020 H       1  UNL1        0.2114
@<TRIPOS>BOND
     1     1     2    1
     2     1    28    1
     3     1    29    1
     4     1    30    1
     5     2     3    1
     6     2    14    1
     7     2     4    1
     8     4     5    1
     9     4    31    1
    10     4    32    1
    11     5    11    1
    12     5     6    2
    13     6     7    1
    14     6    12    1
    15     7     8    1
    16     7    33    1
    17     7    34    1
    18     8     9    1
    19     8    35    1
    20     8    36    1
    21     9    10    2
    22     9    11    1
    23    11    37    1
    24    11    38    1
    25    12    13    1
    26    12    23    1
    27    12    14    1
    28    14    15    1
    29    14    16    1
    30    16    17    1
    31    16    21    1
    32    16    18    1
    33    18    19    1
    34    18    39    1
    35    18    40    1
    36    19    20    1
    37    19    41    1
    38    19    42    1
    39    20    21    1
    40    20    25    1
    41    20    27    1
    42    21    22    1
    43    21    24    1
    44    22    23    1
    45    22    43    1
    46    22    44    1
    47    23    45    1
    48    23    46    1
    49    24    47    1
    50    24    48    1
    51    24    49    1
    52    25    26    3
    53    26    50    1
    54    27    51    1
