@<TRIPOS>MOLECULE
ZINC03831374
 64 67 0 0 0
SMALL
GASTEIGER

@<TRIPOS>ATOM
      1 C           7.9235    8.3637    0.1184 C.3     1  UNL1       -0.0562
      2 C           7.0185    9.4242   -0.5186 C.3     1  UNL1        0.0092
      3 C           7.1167    9.3782   -2.0210 C.3     1  UNL1       -0.0178
      4 C           8.1371   10.4114   -2.5383 C.3     1  UNL1        0.0600
      5 H           8.5797   10.0384   -3.4660 H       1  UNL1        0.0596
      6 C           9.2217   10.6190   -1.4959 C.3     1  UNL1        0.0007
      7 H           9.5705    9.6236   -1.1622 H       1  UNL1        0.0340
      8 C           8.6472   11.3677   -0.2863 C.3     1  UNL1       -0.0311
      9 H           8.5117   12.4311   -0.5445 H       1  UNL1        0.0308
     10 C           7.2844   10.8335    0.0414 C.3     1  UNL1       -0.0292
     11 H           6.5348   11.5302   -0.3965 H       1  UNL1        0.0310
     12 C           6.9281   10.6646    1.5248 C.3     1  UNL1       -0.0463
     13 C           5.6701    9.7534    1.4787 C.3     1  UNL1       -0.0161
     14 C           5.6014    9.1709    0.0444 C.3     1  UNL1        0.1326
     15 C           5.3222    7.6949    0.0820 C.2     1  UNL1        0.2022
     16 O           5.6118    7.0505    1.0614 O.2     1  UNL1       -0.2907
     17 C           4.6810    7.0189   -1.1024 C.3     1  UNL1        0.1530
     18 O           4.5177    5.6036   -0.8220 O.3     1  UNL1       -0.4568
     19 C           3.9570    4.8528   -1.7830 C.2     1  UNL1        0.3078
     20 O           3.6139    5.3613   -2.8240 O.2     1  UNL1       -0.2508
     21 C           3.7553    3.3755   -1.5636 C.3     1  UNL1        0.0500
     22 C           3.1026    2.7602   -2.8031 C.3     1  UNL1       -0.0031
     23 C           2.9010    1.2830   -2.5836 C.2     1  UNL1        0.0423
     24 O           3.2441    0.7745   -1.5426 O.co2   1  UNL1       -0.5498
     25 O           4.6293    9.8600   -0.7337 O.3     1  UNL1       -0.3804
     26 C           9.6364   11.3147    0.8723 C.3     1  UNL1       -0.0458
     27 C          10.9371   12.0242    0.4544 C.3     1  UNL1       -0.0302
     28 C          11.4296   11.3791   -0.8282 C.2     1  UNL1       -0.0559
     29 C          12.6576   10.8866   -0.8726 C.2     1  UNL1       -0.0149
     30 C          13.1574   10.2367   -2.0960 C.2     1  UNL1        0.1787
     31 O          14.2756    9.7538   -2.1328 O.2     1  UNL1       -0.2879
     32 C          12.2768   10.1828   -3.2761 C.2     1  UNL1       -0.0180
     33 C          11.0531   10.6892   -3.2095 C.2     1  UNL1       -0.0701
     34 C          10.4738   11.3236   -1.9942 C.3     1  UNL1        0.0131
     35 C          10.1449   12.7608   -2.3831 C.3     1  UNL1       -0.0520
     36 O           7.4524   11.6369   -2.8114 O.3     1  UNL1       -0.3914
     37 H           7.6461    7.3778   -0.2546 H       1  UNL1        0.0236
     38 H           8.9623    8.5704   -0.1390 H       1  UNL1        0.0236
     39 H           7.8057    8.3888    1.2017 H       1  UNL1        0.0236
     40 H           6.1402    9.5841   -2.4732 H       1  UNL1        0.0297
     41 H           7.4310    8.3764   -2.3414 H       1  UNL1        0.0297
     42 H           6.6753   11.6325    1.9655 H       1  UNL1        0.0269
     43 H           7.7330   10.1967    2.0825 H       1  UNL1        0.0269
     44 H           4.7765   10.3420    1.6852 H       1  UNL1        0.0297
     45 H           5.7642    8.9485    2.2066 H       1  UNL1        0.0297
     46 H           5.2629    7.1343   -1.9074 H       1  UNL1        0.0779
     47 H           3.7054    7.4666   -1.2920 H       1  UNL1        0.0779
     48 H           3.1099    3.2215   -0.6988 H       1  UNL1        0.0381
     49 H           4.7198    2.8995   -1.3866 H       1  UNL1        0.0381
     50 H           3.7480    2.9143   -3.6679 H       1  UNL1        0.0330
     51 H           2.1382    3.2363   -2.9800 H       1  UNL1        0.0330
     52 H           3.7231    9.7568   -0.4124 H       1  UNL1        0.2108
     53 H           9.2132   11.8253    1.7365 H       1  UNL1        0.0271
     54 H           9.8563   10.2806    1.1277 H       1  UNL1        0.0271
     55 H          11.6870   11.8959    1.2382 H       1  UNL1        0.0310
     56 H          10.7510   13.0848    0.3026 H       1  UNL1        0.0310
     57 H          13.2972   10.9629   -0.0022 H       1  UNL1        0.0655
     58 H          12.6285    9.7306   -4.1943 H       1  UNL1        0.0653
     59 H          10.4334   10.6436   -4.0950 H       1  UNL1        0.0582
     60 H           9.7564   13.2924   -1.5145 H       1  UNL1        0.0241
     61 H          11.0481   13.2567   -2.7385 H       1  UNL1        0.0241
     62 H           9.3952   12.7606   -3.1743 H       1  UNL1        0.0241
     63 H           6.7500   11.5564   -3.4712 H       1  UNL1        0.2098
     64 O           2.3402    0.5321   -3.5446 O.co2   1  UNL1       -0.5498
@<TRIPOS>UNITY_ATOM_ATTR
64 1
charge -1
@<TRIPOS>BOND
     1     1     2    1
     2     1    37    1
     3     1    38    1
     4     1    39    1
     5     2    10    1
     6     2    14    1
     7     2     3    1
     8     3     4    1
     9     3    40    1
    10     3    41    1
    11     4     5    1
    12     4     6    1
    13     4    36    1
    14     6     7    1
    15     6    34    1
    16     6     8    1
    17     8     9    1
    18     8    10    1
    19     8    26    1
    20    10    11    1
    21    10    12    1
    22    12    13    1
    23    12    42    1
    24    12    43    1
    25    13    14    1
    26    13    44    1
    27    13    45    1
    28    14    15    1
    29    14    25    1
    30    15    16    2
    31    15    17    1
    32    17    18    1
    33    17    46    1
    34    17    47    1
    35    18    19    1
    36    19    20    2
    37    19    21    1
    38    21    22    1
    39    21    48    1
    40    21    49    1
    41    22    23    1
    42    22    50    1
    43    22    51    1
    44    23    24   ar
    45    23    64   ar
    46    25    52    1
    47    26    27    1
    48    26    53    1
    49    26    54    1
    50    27    28    1
    51    27    55    1
    52    27    56    1
    53    28    34    1
    54    28    29    2
    55    29    30    1
    56    29    57    1
    57    30    31    2
    58    30    32    1
    59    32    33    2
    60    32    58    1
    61    33    34    1
    62    33    59    1
    63    34    35    1
    64    35    60    1
    65    35    61    1
    66    35    62    1
    67    36    63    1
