@<TRIPOS>MOLECULE
ZINC03830449
 44 46 0 0 0
SMALL
GASTEIGER

@<TRIPOS>ATOM
      1 C          -1.2294   -4.2612    2.3999 C.3     1  UNL1        0.0396
      2 O          -0.1516   -3.7636    3.1953 O.3     1  UNL1       -0.3492
      3 C           0.0472   -2.3526    3.0874 C.3     1  UNL1        0.2424
      4 C           1.2484   -1.8418    3.8760 C.3     1  UNL1        0.1320
      5 H           1.7418   -2.5774    4.5112 H       1  UNL1        0.0672
      6 N           0.2688   -0.9344    4.5543 N.am    1  UNL1       -0.2483
      7 C          -0.8172   -1.5407    4.0371 C.2     1  UNL1        0.2745
      8 O          -2.0100   -1.4684    4.2453 O.2     1  UNL1       -0.2701
      9 C           0.5742    0.2199    5.2943 C.2     1  UNL1        0.0632
     10 C           1.7404    0.8266    5.1333 C.2     1  UNL1        0.0004
     11 C           2.8851    0.4229    4.2624 C.3     1  UNL1        0.0220
     12 S           2.3735   -0.7375    2.9574 S.3     1  UNL1       -0.1284
     13 C           1.9382    2.0890    5.9323 C.3     1  UNL1        0.1180
     14 O           3.2032    2.7004    5.5660 O.3     1  UNL1       -0.4460
     15 C           3.5820    3.7870    6.2650 C.2     1  UNL1        0.3980
     16 O           2.8344    4.2673    7.0938 O.2     1  UNL1       -0.2267
     17 N           4.7904    4.3419    6.0455 N.am    1  UNL1       -0.2950
     18 C          -0.4073    0.7582    6.2533 C.2     1  UNL1        0.0860
     19 O          -1.5169    0.2684    6.3265 O.co2   1  UNL1       -0.5433
     20 N           0.0071   -1.8759    1.7027 N.am    1  UNL1       -0.2777
     21 C          -0.0177   -0.5531    1.4459 C.2     1  UNL1        0.2203
     22 O          -0.0067    0.2426    2.3611 O.2     1  UNL1       -0.2754
     23 C          -0.0589   -0.0627    0.0215 C.3     1  UNL1        0.0554
     24 C          -0.0803    1.4441    0.0094 C.ar    1  UNL1       -0.0015
     25 C           0.9601    2.3123   -0.0229 C.ar    1  UNL1       -0.0511
     26 C           0.7003    3.6699   -0.0287 C.ar    1  UNL1       -0.0545
     27 C          -0.5872    4.0929   -0.0020 C.ar    1  UNL1       -0.0241
     28 S          -1.4827    2.5487    0.0260 S.2     1  UNL1       -0.1011
     29 H          -2.1588   -3.7811    2.7061 H       1  UNL1        0.0524
     30 H          -1.0366   -4.0430    1.3495 H       1  UNL1        0.0524
     31 H          -1.3148   -5.3392    2.5372 H       1  UNL1        0.0524
     32 H           3.3087    1.3136    3.7984 H       1  UNL1        0.0424
     33 H           3.6491   -0.0512    4.8786 H       1  UNL1        0.0424
     34 H           1.1246    2.7833    5.7220 H       1  UNL1        0.0747
     35 H           1.9451    1.8487    6.9955 H       1  UNL1        0.0747
     36 H           5.3574    4.0040    5.3347 H       1  UNL1        0.1482
     37 H           5.0932    5.0792    6.5983 H       1  UNL1        0.1482
     38 H          -0.0017   -2.5123    0.9708 H       1  UNL1        0.1520
     39 H          -0.9558   -0.4427   -0.4677 H       1  UNL1        0.0412
     40 H           0.8235   -0.4178   -0.5107 H       1  UNL1        0.0412
     41 H           1.9768    1.9488   -0.0440 H       1  UNL1        0.0626
     42 H           1.5110    4.3830   -0.0539 H       1  UNL1        0.0623
     43 H          -0.9717    5.1022   -0.0019 H       1  UNL1        0.0693
     44 O          -0.0740    1.7937    7.0489 O.co2   1  UNL1       -0.5433
@<TRIPOS>UNITY_ATOM_ATTR
44 1
charge -1
@<TRIPOS>BOND
     1     1     2    1
     2     1    29    1
     3     1    30    1
     4     1    31    1
     5     2     3    1
     6     3     7    1
     7     3     4    1
     8     3    20    1
     9     4     5    1
    10     4    12    1
    11     4     6    1
    12     6     7   am
    13     6     9    1
    14     7     8    2
    15     9    10    2
    16     9    18    1
    17    10    11    1
    18    10    13    1
    19    11    12    1
    20    11    32    1
    21    11    33    1
    22    13    14    1
    23    13    34    1
    24    13    35    1
    25    14    15    1
    26    15    16    2
    27    15    17   am
    28    17    36    1
    29    17    37    1
    30    18    19   ar
    31    18    44   ar
    32    20    21   am
    33    20    38    1
    34    21    22    2
    35    21    23    1
    36    23    24    1
    37    23    39    1
    38    23    40    1
    39    24    28   ar
    40    24    25   ar
    41    25    26   ar
    42    25    41    1
    43    26    27   ar
    44    26    42    1
    45    27    28   ar
    46    27    43    1
