@<TRIPOS>MOLECULE
ZINC03830260
 54 57 0 0 0
SMALL
GASTEIGER

@<TRIPOS>ATOM
      1 C         -11.1245   -0.6237   -2.9252 C.3     1  UNL1       -0.0486
      2 C         -10.5253    0.7285   -2.5337 C.3     1  UNL1        0.0366
      3 CA         -9.4037    1.1628   -3.5174 C.3     1  UNL1        0.0807
      4 HA         -8.8802    0.2756   -3.8737 H       1  UNL1        0.0576
      5 N          -8.4384    2.0632   -2.8776 N.am    1  UNL1       -0.2761
      6 C          -8.3004    1.9234   -1.4126 C.3     1  UNL1        0.1003
      7 H          -8.3608    2.8314   -0.8126 H       1  UNL1        0.0640
      8 S          -9.5074    0.6014   -0.9951 S.3     1  UNL1       -0.1275
      9 CA         -6.9014    1.4166   -1.7451 C.3     1  UNL1        0.1277
     10 HA         -6.7927    0.3382   -1.6295 H       1  UNL1        0.0622
     11 C          -7.1264    1.8457   -3.1739 C.2     1  UNL1        0.2401
     12 O          -6.4343    1.9518   -4.1641 O.2     1  UNL1       -0.2734
     13 N          -5.8369    2.1665   -1.0738 N.am    1  UNL1       -0.2999
     14 C          -4.6343    1.5932   -0.8697 C.2     1  UNL1        0.2386
     15 O          -4.4335    0.4564   -1.2417 O.2     1  UNL1       -0.2734
     16 CA         -3.5393    2.3646   -0.1792 C.3     1  UNL1        0.1261
     17 HA         -3.3091    3.2619   -0.7537 H       1  UNL1        0.0646
     18 C          -3.9952    2.7561    1.2028 C.ar    1  UNL1       -0.0184
     19 C          -3.9539    1.8336    2.2315 C.ar    1  UNL1       -0.0563
     20 C          -4.3672    2.1943    3.5003 C.ar    1  UNL1       -0.0614
     21 C          -4.8324    3.4742    3.7379 C.ar    1  UNL1       -0.0617
     22 C          -4.8786    4.3951    2.7081 C.ar    1  UNL1       -0.0614
     23 C          -4.4600    4.0361    1.4405 C.ar    1  UNL1       -0.0563
     24 N          -2.3408    1.5279   -0.0793 N.am    1  UNL1       -0.2836
     25 C          -1.1250    2.1012    0.0190 C.2     1  UNL1        0.3106
     26 O          -1.0287    3.3089    0.1167 O.2     1  UNL1       -0.2521
     27 N          -0.0161    1.3353    0.0091 N.am    1  UNL1       -0.2084
     28 C           0.0039   -0.1351    0.0084 C.3     1  UNL1        0.0409
     29 C           1.5050   -0.4839    0.0020 C.3     1  UNL1        0.0294
     30 N           2.1713    0.8270   -0.0002 N.am    1  UNL1       -0.2974
     31 C           1.2429    1.7925    0.0041 C.2     1  UNL1        0.3098
     32 O           1.5180    2.9765    0.0030 O.2     1  UNL1       -0.2522
     33 C         -10.0278    1.8673   -4.6943 C.2     1  UNL1        0.0635
     34 O          -9.9698    3.0713   -4.7779 O.co2   1  UNL1       -0.5478
     35 C         -11.6085    1.8014   -2.4045 C.3     1  UNL1       -0.0486
     36 H         -11.7831   -0.9732   -2.1300 H       1  UNL1        0.0244
     37 H         -11.6947   -0.5151   -3.8478 H       1  UNL1        0.0244
     38 H         -10.3226   -1.3463   -3.0767 H       1  UNL1        0.0244
     39 H          -5.9975    3.0756   -0.7763 H       1  UNL1        0.1496
     40 H          -3.5949    0.8323    2.0447 H       1  UNL1        0.0621
     41 H          -4.3308    1.4749    4.3050 H       1  UNL1        0.0618
     42 H          -5.1594    3.7547    4.7283 H       1  UNL1        0.0618
     43 H          -5.2420    5.3950    2.8937 H       1  UNL1        0.0618
     44 H          -4.4964    4.7555    0.6358 H       1  UNL1        0.0621
     45 H          -2.4224    0.5614   -0.0839 H       1  UNL1        0.1513
     46 H          -0.4756   -0.5247    0.9064 H       1  UNL1        0.0486
     47 H          -0.4830   -0.5239   -0.8859 H       1  UNL1        0.0486
     48 H           1.7634   -1.0460   -0.8954 H       1  UNL1        0.0478
     49 H           1.7708   -1.0467    0.8969 H       1  UNL1        0.0478
     50 H           3.1307    0.9698   -0.0041 H       1  UNL1        0.1503
     51 H         -11.1429    2.7643   -2.1941 H       1  UNL1        0.0244
     52 H         -12.1697    1.8652   -3.3367 H       1  UNL1        0.0244
     53 H         -12.2844    1.5391   -1.5906 H       1  UNL1        0.0244
     54 OXT       -10.6482    1.1573   -5.6498 O.co2   1  UNL1       -0.5478
@<TRIPOS>UNITY_ATOM_ATTR
54 1
charge -1
@<TRIPOS>BOND
     1     1     2    1
     2     1    36    1
     3     1    37    1
     4     1    38    1
     5     2     8    1
     6     2     3    1
     7     2    35    1
     8     3     4    1
     9     3     5    1
    10     3    33    1
    11     5    11   am
    12     5     6    1
    13     6     7    1
    14     6     8    1
    15     6     9    1
    16     9    10    1
    17     9    11    1
    18     9    13    1
    19    11    12    2
    20    13    14   am
    21    13    39    1
    22    14    15    2
    23    14    16    1
    24    16    17    1
    25    16    18    1
    26    16    24    1
    27    18    23   ar
    28    18    19   ar
    29    19    20   ar
    30    19    40    1
    31    20    21   ar
    32    20    41    1
    33    21    22   ar
    34    21    42    1
    35    22    23   ar
    36    22    43    1
    37    23    44    1
    38    24    25   am
    39    24    45    1
    40    25    26    2
    41    25    27   am
    42    27    31   am
    43    27    28    1
    44    28    29    1
    45    28    46    1
    46    28    47    1
    47    29    30    1
    48    29    48    1
    49    29    49    1
    50    30    31   am
    51    30    50    1
    52    31    32    2
    53    33    34   ar
    54    33    54   ar
    55    35    51    1
    56    35    52    1
    57    35    53    1
