@<TRIPOS>MOLECULE
ZINC11592664
 63 66 0 0 0
SMALL
GASTEIGER

@<TRIPOS>ATOM
      1 C           2.0382   -0.1415    1.0449 C.3     1  UNL1       -0.0586
      2 C           2.4647    1.0159    0.1407 C.3     1  UNL1       -0.0179
      3 C           3.0435    0.4854   -1.1493 C.3     1  UNL1       -0.0464
      4 C           4.3339   -0.2818   -0.8826 C.3     1  UNL1       -0.0486
      5 C           5.3400    0.4076    0.0296 C.3     1  UNL1       -0.0274
      6 H           5.9610   -0.4299    0.4554 H       1  UNL1        0.0312
      7 C           4.7061    1.0906    1.2318 C.3     1  UNL1       -0.0340
      8 H           4.3529    0.2924    1.9207 H       1  UNL1        0.0307
      9 C           3.5215    1.9206    0.8168 C.3     1  UNL1       -0.0318
     10 H           3.8305    2.7149    0.1271 H       1  UNL1        0.0309
     11 C           2.7023    2.5683    1.9427 C.3     1  UNL1       -0.0487
     12 C           1.3553    2.8938    1.2390 C.3     1  UNL1       -0.0411
     13 C           1.2766    1.9749   -0.0063 C.3     1  UNL1        0.0412
     14 H           1.3760    2.5546   -0.9200 H       1  UNL1        0.0400
     15 C          -0.0144    1.1999   -0.0025 C.2     1  UNL1        0.2170
     16 O          -0.5968    0.9970    1.0418 O.2     1  UNL1       -0.2755
     17 N          -0.5199    0.7270   -1.1589 N.am    1  UNL1       -0.3103
     18 C          -1.7728   -0.0322   -1.1545 C.3     1  UNL1        0.0262
     19 C          -2.8957    0.8402   -0.5896 C.3     1  UNL1       -0.0442
     20 C          -2.1214   -0.4494   -2.5846 C.3     1  UNL1       -0.0442
     21 C          -1.6099   -1.2802   -0.2845 C.3     1  UNL1       -0.0442
     22 C           5.6971    1.9107    2.0531 C.3     1  UNL1       -0.0480
     23 C           6.5108    2.8478    1.1596 C.3     1  UNL1       -0.0334
     24 C           7.2854    1.9879    0.1715 C.3     1  UNL1        0.0325
     25 H           7.8608    1.2380    0.7264 H       1  UNL1        0.0507
     26 C           6.3147    1.2579   -0.7599 C.3     1  UNL1        0.0078
     27 C           7.1557    0.3776   -1.6684 C.2     1  UNL1       -0.0712
     28 C           8.3252    0.8392   -2.1095 C.2     1  UNL1       -0.0032
     29 C           8.8069    2.1685   -1.6904 C.2     1  UNL1        0.2369
     30 O           9.7040    2.7198   -2.2945 O.2     1  UNL1       -0.2708
     31 N           8.2155    2.7773   -0.6353 N.am    1  UNL1       -0.3082
     32 C           5.6071    2.2754   -1.6529 C.3     1  UNL1       -0.0541
     33 H           1.2652   -0.7263    0.5463 H       1  UNL1        0.0235
     34 H           2.8989   -0.7778    1.2510 H       1  UNL1        0.0235
     35 H           1.6465    0.2546    1.9818 H       1  UNL1        0.0235
     36 H           3.2034    1.3033   -1.8520 H       1  UNL1        0.0271
     37 H           2.3095   -0.1971   -1.6092 H       1  UNL1        0.0271
     38 H           4.8221   -0.4909   -1.8460 H       1  UNL1        0.0268
     39 H           4.0896   -1.2631   -0.4522 H       1  UNL1        0.0268
     40 H           3.1863    3.4864    2.2812 H       1  UNL1        0.0268
     41 H           2.5589    1.8865    2.7752 H       1  UNL1        0.0268
     42 H           1.3362    3.9404    0.9331 H       1  UNL1        0.0273
     43 H           0.5234    2.6867    1.9107 H       1  UNL1        0.0273
     44 H          -0.0541    0.8893   -1.9941 H       1  UNL1        0.1492
     45 H          -3.0118    1.7293   -1.2094 H       1  UNL1        0.0250
     46 H          -3.8279    0.2753   -0.5863 H       1  UNL1        0.0250
     47 H          -2.6474    1.1374    0.4292 H       1  UNL1        0.0250
     48 H          -1.3215   -1.0709   -2.9870 H       1  UNL1        0.0250
     49 H          -3.0537   -1.0142   -2.5813 H       1  UNL1        0.0250
     50 H          -2.2375    0.4397   -3.2044 H       1  UNL1        0.0250
     51 H          -1.3615   -0.9830    0.7343 H       1  UNL1        0.0250
     52 H          -2.5421   -1.8451   -0.2812 H       1  UNL1        0.0250
     53 H          -0.8099   -1.9017   -0.6869 H       1  UNL1        0.0250
     54 H           5.1533    2.4986    2.7943 H       1  UNL1        0.0269
     55 H           6.3770    1.2322    2.5732 H       1  UNL1        0.0269
     56 H           5.8535    3.5453    0.6513 H       1  UNL1        0.0283
     57 H           7.2155    3.4110    1.7794 H       1  UNL1        0.0283
     58 H           6.8054   -0.6039   -1.9424 H       1  UNL1        0.0580
     59 H           8.9266    0.2364   -2.7789 H       1  UNL1        0.0666
     60 H           8.3996    3.7009   -0.4234 H       1  UNL1        0.1493
     61 H           6.3459    2.8138   -2.2465 H       1  UNL1        0.0239
     62 H           4.9153    1.7570   -2.3169 H       1  UNL1        0.0239
     63 H           5.0550    2.9814   -1.0325 H       1  UNL1        0.0239
@<TRIPOS>BOND
     1     1     2    1
     2     1    33    1
     3     1    34    1
     4     1    35    1
     5     2     9    1
     6     2    13    1
     7     2     3    1
     8     3     4    1
     9     3    36    1
    10     3    37    1
    11     4     5    1
    12     4    38    1
    13     4    39    1
    14     5     6    1
    15     5    26    1
    16     5     7    1
    17     7     8    1
    18     7     9    1
    19     7    22    1
    20     9    10    1
    21     9    11    1
    22    11    12    1
    23    11    40    1
    24    11    41    1
    25    12    13    1
    26    12    42    1
    27    12    43    1
    28    13    14    1
    29    13    15    1
    30    15    16    2
    31    15    17   am
    32    17    18    1
    33    17    44    1
    34    18    19    1
    35    18    20    1
    36    18    21    1
    37    19    45    1
    38    19    46    1
    39    19    47    1
    40    20    48    1
    41    20    49    1
    42    20    50    1
    43    21    51    1
    44    21    52    1
    45    21    53    1
    46    22    23    1
    47    22    54    1
    48    22    55    1
    49    23    24    1
    50    23    56    1
    51    23    57    1
    52    24    25    1
    53    24    31    1
    54    24    26    1
    55    26    27    1
    56    26    32    1
    57    27    28    2
    58    27    58    1
    59    28    29    1
    60    28    59    1
    61    29    30    2
    62    29    31   am
    63    31    60    1
    64    32    61    1
    65    32    62    1
    66    32    63    1
