@<TRIPOS>MOLECULE
ZINC03830871
 84 86 0 0 0
SMALL
GASTEIGER

@<TRIPOS>ATOM
      1 C           2.1580   -3.1352    5.2622 C.3     1  UNL1       -0.0552
      2 C           1.3695   -3.5966    4.0350 C.3     1  UNL1        0.0422
      3 C          -0.0344   -3.0534    4.1065 C.2     1  UNL1        0.3090
      4 O          -0.3698   -2.3675    5.0430 O.2     1  UNL1       -0.2508
      5 O          -0.9122   -3.3315    3.1299 O.3     1  UNL1       -0.4345
      6 C          -2.2465   -2.7748    3.2646 C.3     1  UNL1        0.2132
      7 H          -2.6343   -2.9972    4.2587 H       1  UNL1        0.1063
      8 C          -3.1657   -3.3921    2.2088 C.3     1  UNL1        0.0164
      9 C          -4.5705   -2.8021    2.3478 C.3     1  UNL1       -0.0570
     10 C          -2.6188   -3.0838    0.8135 C.3     1  UNL1       -0.0570
     11 O          -2.1927   -1.3588    3.0801 O.3     1  UNL1       -0.2860
     12 P          -3.0495   -0.3255    3.9691 P.3     1  UNL1        0.2162
     13 O          -4.4819   -0.6928    3.9089 O.2     1  UNL1       -0.2902
     14 C          -2.4773   -0.3921    5.6987 C.3     1  UNL1        0.0250
     15 C          -2.8234   -1.7566    6.2982 C.3     1  UNL1       -0.0440
     16 C          -2.4712   -1.7636    7.7871 C.3     1  UNL1       -0.0486
     17 C          -2.8173   -3.1280    8.3866 C.3     1  UNL1       -0.0277
     18 C          -2.4705   -3.1350    9.8531 C.ar    1  UNL1       -0.0474
     19 C          -1.2136   -3.5375   10.2642 C.ar    1  UNL1       -0.0586
     20 C          -0.8939   -3.5393   11.6091 C.ar    1  UNL1       -0.0615
     21 C          -1.8345   -3.1484   12.5436 C.ar    1  UNL1       -0.0617
     22 C          -3.0931   -2.7508   12.1329 C.ar    1  UNL1       -0.0615
     23 C          -3.4111   -2.7441   10.7877 C.ar    1  UNL1       -0.0586
     24 C          -2.8276    1.3636    3.3203 C.3     1  UNL1        0.1011
     25 C          -3.4124    1.4501    1.9341 C.2     1  UNL1        0.2254
     26 O          -4.6089    1.5838    1.7879 O.2     1  UNL1       -0.2750
     27 N          -2.6057    1.3789    0.8567 N.am    1  UNL1       -0.2925
     28 C          -1.1395    1.2184    0.8898 C.3     1  UNL1        0.0185
     29 C          -0.7802    0.5857   -0.4777 C.3     1  UNL1       -0.0203
     30 H          -0.9514   -0.4908   -0.4673 H       1  UNL1        0.0319
     31 C          -1.7814    1.2988   -1.4246 C.3     1  UNL1       -0.0245
     32 C          -3.0410    1.4493   -0.5458 C.3     1  UNL1        0.0657
     33 H          -3.7399    0.6403   -0.7581 H       1  UNL1        0.0562
     34 C          -3.6963    2.7798   -0.8129 C.2     1  UNL1        0.0622
     35 O          -3.5182    3.7039   -0.0551 O.co2   1  UNL1       -0.5479
     36 C           0.6647    0.9045   -0.8668 C.3     1  UNL1       -0.0367
     37 C           0.9467    0.3622   -2.2694 C.3     1  UNL1       -0.0499
     38 C           2.3917    0.6810   -2.6585 C.3     1  UNL1       -0.0528
     39 C           3.3457    0.0264   -1.6573 C.3     1  UNL1       -0.0530
     40 C           3.0637    0.5687   -0.2547 C.3     1  UNL1       -0.0528
     41 C           1.6187    0.2499    0.1344 C.3     1  UNL1       -0.0499
     42 H           2.1906   -2.0459    5.2847 H       1  UNL1        0.0235
     43 H           1.6718   -3.5028    6.1659 H       1  UNL1        0.0235
     44 H           3.1734   -3.5281    5.2105 H       1  UNL1        0.0235
     45 H           1.3368   -4.6859    4.0126 H       1  UNL1        0.0375
     46 H           1.8557   -3.2290    3.1314 H       1  UNL1        0.0375
     47 H          -3.2093   -4.4718    2.3515 H       1  UNL1        0.0356
     48 H          -5.2559   -3.3370    1.6903 H       1  UNL1        0.0234
     49 H          -4.9057   -2.9013    3.3802 H       1  UNL1        0.0234
     50 H          -4.5507   -1.7478    2.0718 H       1  UNL1        0.0234
     51 H          -1.6180   -3.5041    0.7144 H       1  UNL1        0.0234
     52 H          -3.2737   -3.5236    0.0612 H       1  UNL1        0.0234
     53 H          -2.5752   -2.0041    0.6707 H       1  UNL1        0.0234
     54 H          -1.3977   -0.2447    5.7301 H       1  UNL1        0.0364
     55 H          -2.9681    0.3927    6.2743 H       1  UNL1        0.0364
     56 H          -3.8896   -1.9472    6.1761 H       1  UNL1        0.0270
     57 H          -2.2545   -2.5330    5.7866 H       1  UNL1        0.0270
     58 H          -1.4050   -1.5730    7.9092 H       1  UNL1        0.0269
     59 H          -3.0400   -0.9871    8.2986 H       1  UNL1        0.0269
     60 H          -3.8836   -3.3187    8.2645 H       1  UNL1        0.0313
     61 H          -2.2485   -3.9045    7.8750 H       1  UNL1        0.0313
     62 H          -0.4802   -3.8471    9.5344 H       1  UNL1        0.0620
     63 H           0.0894   -3.8503   11.9300 H       1  UNL1        0.0618
     64 H          -1.5861   -3.1540   13.5947 H       1  UNL1        0.0618
     65 H          -3.8281   -2.4458   12.8631 H       1  UNL1        0.0618
     66 H          -4.3946   -2.4338   10.4668 H       1  UNL1        0.0620
     67 H          -1.7645    1.6012    3.2816 H       1  UNL1        0.0459
     68 H          -3.3350    2.0734    3.9736 H       1  UNL1        0.0459
     69 H          -0.8482    0.5541    1.7034 H       1  UNL1        0.0467
     70 H          -0.6540    2.1882    0.9984 H       1  UNL1        0.0467
     71 H          -1.4007    2.2754   -1.7235 H       1  UNL1        0.0290
     72 H          -1.9921    0.6820   -2.2983 H       1  UNL1        0.0290
     73 H           0.8136    1.9842   -0.8580 H       1  UNL1        0.0304
     74 H           0.7978   -0.7175   -2.2783 H       1  UNL1        0.0268
     75 H           0.2671    0.8285   -2.9827 H       1  UNL1        0.0268
     76 H           2.5406    1.7607   -2.6496 H       1  UNL1        0.0265
     77 H           2.5926    0.2947   -3.6577 H       1  UNL1        0.0265
     78 H           4.3751    0.2535   -1.9345 H       1  UNL1        0.0265
     79 H           3.1968   -1.0533   -1.6661 H       1  UNL1        0.0265
     80 H           3.2126    1.6484   -0.2458 H       1  UNL1        0.0265
     81 H           3.7433    0.1023    0.4586 H       1  UNL1        0.0265
     82 H           1.4178    0.6362    1.1336 H       1  UNL1        0.0268
     83 H           1.4698   -0.8299    0.1255 H       1  UNL1        0.0268
     84 O          -4.4777    2.9383   -1.8927 O.co2   1  UNL1       -0.5479
@<TRIPOS>UNITY_ATOM_ATTR
84 1
charge -1
@<TRIPOS>BOND
     1     1     2    1
     2     1    42    1
     3     1    43    1
     4     1    44    1
     5     2     3    1
     6     2    45    1
     7     2    46    1
     8     3     4    2
     9     3     5    1
    10     5     6    1
    11     6     7    1
    12     6     8    1
    13     6    11    1
    14     8     9    1
    15     8    10    1
    16     8    47    1
    17     9    48    1
    18     9    49    1
    19     9    50    1
    20    10    51    1
    21    10    52    1
    22    10    53    1
    23    11    12    1
    24    12    13    2
    25    12    14    1
    26    12    24    1
    27    14    15    1
    28    14    54    1
    29    14    55    1
    30    15    16    1
    31    15    56    1
    32    15    57    1
    33    16    17    1
    34    16    58    1
    35    16    59    1
    36    17    18    1
    37    17    60    1
    38    17    61    1
    39    18    23   ar
    40    18    19   ar
    41    19    20   ar
    42    19    62    1
    43    20    21   ar
    44    20    63    1
    45    21    22   ar
    46    21    64    1
    47    22    23   ar
    48    22    65    1
    49    23    66    1
    50    24    25    1
    51    24    67    1
    52    24    68    1
    53    25    26    2
    54    25    27   am
    55    27    32    1
    56    27    28    1
    57    28    29    1
    58    28    69    1
    59    28    70    1
    60    29    30    1
    61    29    31    1
    62    29    36    1
    63    31    32    1
    64    31    71    1
    65    31    72    1
    66    32    33    1
    67    32    34    1
    68    34    35   ar
    69    34    84   ar
    70    36    41    1
    71    36    37    1
    72    36    73    1
    73    37    38    1
    74    37    74    1
    75    37    75    1
    76    38    39    1
    77    38    76    1
    78    38    77    1
    79    39    40    1
    80    39    78    1
    81    39    79    1
    82    40    41    1
    83    40    80    1
    84    40    81    1
    85    41    82    1
    86    41    83    1
