@<TRIPOS>MOLECULE
ZINC03830537
 57 60 0 0 0
SMALL
GASTEIGER

@<TRIPOS>ATOM
      1 C          -0.3151    0.3291    1.7495 C.3     1  UNL1       -0.0020
      2 C          -0.0100   -0.1423    0.3510 C.2     1  UNL1        0.1741
      3 O          -0.8566   -0.0737   -0.5074 O.2     1  UNL1       -0.2934
      4 C           1.3444   -0.6965    0.0255 C.3     1  UNL1        0.1759
      5 C           1.6433   -0.5222   -1.4878 C.3     1  UNL1       -0.0049
      6 C           1.4256   -1.9137   -2.1422 C.3     1  UNL1       -0.0450
      7 C           0.7057   -2.7160   -1.0482 C.3     1  UNL1       -0.0248
      8 H          -0.3521   -2.3772   -1.0307 H       1  UNL1        0.0313
      9 C           1.4135   -2.2236    0.2285 C.3     1  UNL1        0.0182
     10 C           0.7902   -2.7657    1.4829 C.3     1  UNL1       -0.0430
     11 C           0.2115   -4.1760    1.2560 C.3     1  UNL1       -0.0482
     12 C           0.9774   -4.8819    0.1516 C.3     1  UNL1       -0.0250
     13 H           2.0519   -4.8229    0.3691 H       1  UNL1        0.0315
     14 C           0.6932   -4.2068   -1.1916 C.3     1  UNL1       -0.0142
     15 H          -0.3363   -4.4737   -1.5051 H       1  UNL1        0.0349
     16 C           1.6111   -4.7678   -2.2348 C.2     1  UNL1       -0.0617
     17 C           1.9978   -6.0481   -2.1524 C.2     1  UNL1        0.0412
     18 C           1.5634   -6.9185   -1.0597 C.2     1  UNL1       -0.0199
     19 C           1.9614   -8.2122   -1.0372 C.2     1  UNL1       -0.0141
     20 C           1.6208   -9.0774    0.0132 C.2     1  UNL1        0.1564
     21 O           1.9497  -10.2456   -0.0469 O.2     1  UNL1       -0.2927
     22 C           0.8576   -8.5843    1.2128 C.3     1  UNL1        0.0107
     23 C           1.0345   -7.0726    1.3570 C.3     1  UNL1       -0.0363
     24 C           0.6772   -6.3764    0.0424 C.3     1  UNL1       -0.0018
     25 C          -0.7901   -6.6219   -0.2921 C.3     1  UNL1       -0.0552
     26 CL          3.0440   -6.6870   -3.3826 Cl      1  UNL1       -0.0836
     27 C           2.9148   -2.5647    0.2008 C.3     1  UNL1       -0.0552
     28 O           2.3719   -0.0521    0.8199 O.3     1  UNL1       -0.4500
     29 C           2.5501    1.2652    0.6331 C.2     1  UNL1        0.3049
     30 O           1.8324    1.8699   -0.1279 O.2     1  UNL1       -0.2511
     31 C           3.6452    1.9897    1.3726 C.3     1  UNL1        0.0333
     32 H           0.4745    0.1577    2.3387 H       1  UNL1        0.0307
     33 H          -0.5316    1.3972    1.7338 H       1  UNL1        0.0307
     34 H          -1.1798   -0.2113    2.1346 H       1  UNL1        0.0307
     35 H           0.9564    0.2066   -1.9190 H       1  UNL1        0.0308
     36 H           2.6715   -0.1969   -1.6290 H       1  UNL1        0.0308
     37 H           0.7841   -1.8192   -3.0248 H       1  UNL1        0.0270
     38 H           2.3738   -2.3688   -2.4179 H       1  UNL1        0.0270
     39 H          -0.0044   -2.1214    1.8649 H       1  UNL1        0.0272
     40 H           1.5603   -2.8268    2.2730 H       1  UNL1        0.0272
     41 H          -0.8435   -4.0906    0.9887 H       1  UNL1        0.0269
     42 H           0.2920   -4.7473    2.1867 H       1  UNL1        0.0269
     43 H           1.9554   -4.1567   -3.0517 H       1  UNL1        0.0589
     44 H           2.5587   -8.5915   -1.8527 H       1  UNL1        0.0656
     45 H           1.2134   -9.0234    2.0378 H       1  UNL1        0.0345
     46 H          -0.1960   -8.8408    1.1166 H       1  UNL1        0.0345
     47 H           2.0704   -6.8487    1.6134 H       1  UNL1        0.0278
     48 H           0.3823   -6.7042    2.1513 H       1  UNL1        0.0278
     49 H          -0.9648   -7.6927   -0.3957 H       1  UNL1        0.0238
     50 H          -1.4161   -6.2273    0.5083 H       1  UNL1        0.0238
     51 H          -1.0381   -6.1210   -1.2279 H       1  UNL1        0.0238
     52 H           3.4428   -1.9394    0.9208 H       1  UNL1        0.0237
     53 H           3.0538   -3.6142    0.4603 H       1  UNL1        0.0237
     54 H           3.3106   -2.3819   -0.7982 H       1  UNL1        0.0237
     55 H           4.1828    1.2852    2.0071 H       1  UNL1        0.0342
     56 H           4.3360    2.4332    0.6555 H       1  UNL1        0.0342
     57 H           3.2087    2.7749    1.9900 H       1  UNL1        0.0342
@<TRIPOS>BOND
     1     1     2    1
     2     1    32    1
     3     1    33    1
     4     1    34    1
     5     2     3    2
     6     2     4    1
     7     4     9    1
     8     4     5    1
     9     4    28    1
    10     5     6    1
    11     5    35    1
    12     5    36    1
    13     6     7    1
    14     6    37    1
    15     6    38    1
    16     7     8    1
    17     7    14    1
    18     7     9    1
    19     9    10    1
    20     9    27    1
    21    10    11    1
    22    10    39    1
    23    10    40    1
    24    11    12    1
    25    11    41    1
    26    11    42    1
    27    12    13    1
    28    12    24    1
    29    12    14    1
    30    14    15    1
    31    14    16    1
    32    16    17    2
    33    16    43    1
    34    17    18    1
    35    17    26    1
    36    18    24    1
    37    18    19    2
    38    19    20    1
    39    19    44    1
    40    20    21    2
    41    20    22    1
    42    22    23    1
    43    22    45    1
    44    22    46    1
    45    23    24    1
    46    23    47    1
    47    23    48    1
    48    24    25    1
    49    25    49    1
    50    25    50    1
    51    25    51    1
    52    27    52    1
    53    27    53    1
    54    27    54    1
    55    28    29    1
    56    29    30    2
    57    29    31    1
    58    31    55    1
    59    31    56    1
    60    31    57    1
