@<TRIPOS>MOLECULE
ZINC15848262
 52 55 0 0 0
SMALL
GASTEIGER

@<TRIPOS>ATOM
      1 C          -4.3512    0.8983   -5.2069 C.3     1  UNL1       -0.0627
      2 C          -4.1869    2.2317   -4.4748 C.3     1  UNL1       -0.0263
      3 C          -3.1914    2.0612   -3.3180 C.3     1  UNL1        0.0715
      4 C          -1.8069    1.6929   -3.8804 C.3     1  UNL1       -0.0232
      5 C          -0.8937    2.9092   -3.6382 C.3     1  UNL1       -0.0467
      6 C          -1.5277    3.6625   -2.4375 C.3     1  UNL1       -0.0298
      7 H          -1.3208    4.7501   -2.5165 H       1  UNL1        0.0310
      8 C          -3.0251    3.3953   -2.5831 C.3     1  UNL1       -0.0002
      9 C          -3.8248    3.4684   -1.3062 C.3     1  UNL1       -0.0445
     10 C          -3.1301    2.8491   -0.0982 C.3     1  UNL1       -0.0488
     11 C          -1.7547    3.5004    0.0556 C.3     1  UNL1       -0.0314
     12 H          -1.8667    4.5854    0.0789 H       1  UNL1        0.0309
     13 C          -0.9117    3.1090   -1.1582 C.3     1  UNL1       -0.0340
     14 H           0.0867    3.5561   -1.0318 H       1  UNL1        0.0307
     15 C          -0.7541    1.5939   -1.2317 C.3     1  UNL1       -0.0460
     16 C          -0.0127    1.0861    0.0080 C.3     1  UNL1       -0.0308
     17 C          -0.7283    1.5803    1.2504 C.2     1  UNL1       -0.0629
     18 C          -1.0279    0.6869    2.1934 C.2     1  UNL1       -0.0197
     19 C          -1.6788    1.1215    3.4327 C.2     1  UNL1        0.1561
     20 O          -2.2815    0.3414    4.1416 O.2     1  UNL1       -0.2927
     21 C          -1.5648    2.5906    3.7838 C.3     1  UNL1        0.0104
     22 C          -1.9267    3.4038    2.5429 C.3     1  UNL1       -0.0392
     23 C          -1.0745    3.0337    1.3442 C.3     1  UNL1       -0.0160
     24 H          -0.1322    3.5868    1.4320 H       1  UNL1        0.0349
     25 C          -3.5936    4.4897   -3.5178 C.3     1  UNL1       -0.0567
     26 O          -3.6628    1.0442   -2.4344 O.3     1  UNL1       -0.3880
     27 H          -5.0578    1.0193   -6.0280 H       1  UNL1        0.0231
     28 H          -3.3866    0.5792   -5.6016 H       1  UNL1        0.0231
     29 H          -4.7264    0.1464   -4.5125 H       1  UNL1        0.0231
     30 H          -5.1515    2.5507   -4.0800 H       1  UNL1        0.0290
     31 H          -3.8117    2.9835   -5.1691 H       1  UNL1        0.0290
     32 H          -1.4173    0.8087   -3.3780 H       1  UNL1        0.0293
     33 H          -1.8833    1.4929   -4.9524 H       1  UNL1        0.0293
     34 H          -0.8702    3.5508   -4.5244 H       1  UNL1        0.0269
     35 H           0.1229    2.5894   -3.4013 H       1  UNL1        0.0269
     36 H          -4.0304    4.5225   -1.0867 H       1  UNL1        0.0272
     37 H          -4.7863    2.9704   -1.4574 H       1  UNL1        0.0272
     38 H          -3.7357    3.0404    0.7921 H       1  UNL1        0.0268
     39 H          -3.0286    1.7737   -0.2276 H       1  UNL1        0.0268
     40 H          -0.1629    1.3260   -2.1124 H       1  UNL1        0.0271
     41 H          -1.7241    1.1092   -1.2924 H       1  UNL1        0.0271
     42 H           0.0021   -0.0041    0.0020 H       1  UNL1        0.0310
     43 H           1.0101    1.4636    0.0003 H       1  UNL1        0.0310
     44 H          -0.8317   -0.3599    2.0208 H       1  UNL1        0.0652
     45 H          -0.6284    2.7931    4.0705 H       1  UNL1        0.0345
     46 H          -2.2535    2.8298    4.5953 H       1  UNL1        0.0345
     47 H          -1.7783    4.4641    2.7647 H       1  UNL1        0.0275
     48 H          -2.9782    3.2428    2.3151 H       1  UNL1        0.0275
     49 H          -3.0972    4.4339   -4.4866 H       1  UNL1        0.0236
     50 H          -4.6646    4.3352   -3.6488 H       1  UNL1        0.0236
     51 H          -3.4194    5.4710   -3.0763 H       1  UNL1        0.0236
     52 H          -3.7831    0.1820   -2.8555 H       1  UNL1        0.2102
@<TRIPOS>BOND
     1     1     2    1
     2     1    27    1
     3     1    28    1
     4     1    29    1
     5     2     3    1
     6     2    30    1
     7     2    31    1
     8     3     8    1
     9     3     4    1
    10     3    26    1
    11     4     5    1
    12     4    32    1
    13     4    33    1
    14     5     6    1
    15     5    34    1
    16     5    35    1
    17     6     7    1
    18     6    13    1
    19     6     8    1
    20     8     9    1
    21     8    25    1
    22     9    10    1
    23     9    36    1
    24     9    37    1
    25    10    11    1
    26    10    38    1
    27    10    39    1
    28    11    12    1
    29    11    23    1
    30    11    13    1
    31    13    14    1
    32    13    15    1
    33    15    16    1
    34    15    40    1
    35    15    41    1
    36    16    17    1
    37    16    42    1
    38    16    43    1
    39    17    23    1
    40    17    18    2
    41    18    19    1
    42    18    44    1
    43    19    20    2
    44    19    21    1
    45    21    22    1
    46    21    45    1
    47    21    46    1
    48    22    23    1
    49    22    47    1
    50    22    48    1
    51    23    24    1
    52    25    49    1
    53    25    50    1
    54    25    51    1
    55    26    52    1
