@<TRIPOS>MOLECULE
ZINC03830604
 59 62 0 0 0
SMALL
GASTEIGER

@<TRIPOS>ATOM
      1 C          -1.9496    0.0179    3.5936 C.3     1  UNL1        0.0332
      2 C          -2.0564    1.5193    3.5196 C.2     1  UNL1        0.3043
      3 O          -1.9746    2.1812    4.5271 O.2     1  UNL1       -0.2512
      4 O          -2.2368    2.1217    2.3337 O.3     1  UNL1       -0.4570
      5 C          -2.3308    3.5706    2.3378 C.3     1  UNL1        0.1530
      6 C          -2.5308    4.0650    0.9284 C.2     1  UNL1        0.2022
      7 O          -2.5881    3.2775    0.0147 O.2     1  UNL1       -0.2907
      8 C          -2.6592    5.5422    0.6591 C.3     1  UNL1        0.1329
      9 C          -2.3505    5.8434   -0.8261 C.3     1  UNL1       -0.0161
     10 C          -3.6159    6.5238   -1.4094 C.3     1  UNL1       -0.0463
     11 C          -4.3046    7.1113   -0.1694 C.3     1  UNL1       -0.0286
     12 H          -3.7671    8.0070    0.1418 H       1  UNL1        0.0310
     13 C          -4.1027    5.9963    0.8815 C.3     1  UNL1        0.0135
     14 C          -4.3812    6.5584    2.2681 C.3     1  UNL1        0.0148
     15 C          -5.6858    7.3442    2.1488 C.2     1  UNL1        0.1381
     16 O          -6.0190    8.1697    2.9647 O.2     1  UNL1       -0.2971
     17 C          -6.5249    7.0206    0.9404 C.3     1  UNL1        0.0297
     18 H          -6.7126    6.0386    0.9182 H       1  UNL1        0.0389
     19 C          -5.7614    7.4293   -0.3270 C.3     1  UNL1       -0.0270
     20 H          -5.8559    8.5099   -0.4344 H       1  UNL1        0.0311
     21 C          -6.4528    6.7837   -1.5169 C.3     1  UNL1       -0.0456
     22 C          -7.8480    7.4103   -1.6525 C.3     1  UNL1       -0.0305
     23 C          -8.5845    7.3414   -0.3278 C.2     1  UNL1       -0.0597
     24 C          -9.8489    6.9221   -0.3460 C.2     1  UNL1       -0.0194
     25 C         -10.6227    6.8443    0.8967 C.2     1  UNL1        0.1561
     26 O         -11.6049    6.1387    0.9941 O.2     1  UNL1       -0.2927
     27 C         -10.1310    7.6915    2.0540 C.3     1  UNL1        0.0107
     28 C          -8.6334    7.4291    2.2052 C.3     1  UNL1       -0.0363
     29 C          -7.8721    7.7541    0.9337 C.3     1  UNL1       -0.0005
     30 C          -7.6141    9.2614    0.8842 C.3     1  UNL1       -0.0552
     31 C          -5.0584    4.8367    0.5934 C.3     1  UNL1       -0.0559
     32 O          -1.7744    6.2767    1.5076 O.3     1  UNL1       -0.3804
     33 H          -2.9416   -0.4102    3.7375 H       1  UNL1        0.0342
     34 H          -1.5210   -0.3620    2.6663 H       1  UNL1        0.0342
     35 H          -1.3091   -0.2600    4.4306 H       1  UNL1        0.0342
     36 H          -3.1059    3.8527    2.9031 H       1  UNL1        0.0779
     37 H          -1.4119    3.9932    2.7442 H       1  UNL1        0.0779
     38 H          -1.4961    6.5160   -0.9014 H       1  UNL1        0.0297
     39 H          -2.1448    4.9159   -1.3606 H       1  UNL1        0.0297
     40 H          -4.2587    5.7890   -1.8942 H       1  UNL1        0.0269
     41 H          -3.3428    7.3144   -2.1083 H       1  UNL1        0.0269
     42 H          -4.4646    5.8064    2.9220 H       1  UNL1        0.0348
     43 H          -3.5701    7.2183    2.5759 H       1  UNL1        0.0348
     44 H          -5.8762    6.9690   -2.4232 H       1  UNL1        0.0271
     45 H          -6.5455    5.7104   -1.3514 H       1  UNL1        0.0271
     46 H          -7.7480    8.4523   -1.9563 H       1  UNL1        0.0310
     47 H          -8.4151    6.8686   -2.4095 H       1  UNL1        0.0310
     48 H         -10.3066    6.6375   -1.2819 H       1  UNL1        0.0652
     49 H         -10.3039    8.6567    1.8576 H       1  UNL1        0.0345
     50 H         -10.6514    7.4076    2.9688 H       1  UNL1        0.0345
     51 H          -8.2457    8.0431    3.0181 H       1  UNL1        0.0278
     52 H          -8.4802    6.3785    2.4516 H       1  UNL1        0.0278
     53 H          -8.5623    9.7948    0.9528 H       1  UNL1        0.0238
     54 H          -6.9747    9.5482    1.7190 H       1  UNL1        0.0238
     55 H          -7.1217    9.5151   -0.0546 H       1  UNL1        0.0238
     56 H          -4.5186    3.8930    0.6716 H       1  UNL1        0.0236
     57 H          -5.8739    4.8499    1.3165 H       1  UNL1        0.0236
     58 H          -5.4635    4.9413   -0.4131 H       1  UNL1        0.0236
     59 H          -0.8421    6.0445    1.3988 H       1  UNL1        0.2108
@<TRIPOS>BOND
     1     1     2    1
     2     1    33    1
     3     1    34    1
     4     1    35    1
     5     2     3    2
     6     2     4    1
     7     4     5    1
     8     5     6    1
     9     5    36    1
    10     5    37    1
    11     6     7    2
    12     6     8    1
    13     8    13    1
    14     8     9    1
    15     8    32    1
    16     9    10    1
    17     9    38    1
    18     9    39    1
    19    10    11    1
    20    10    40    1
    21    10    41    1
    22    11    12    1
    23    11    19    1
    24    11    13    1
    25    13    14    1
    26    13    31    1
    27    14    15    1
    28    14    42    1
    29    14    43    1
    30    15    16    2
    31    15    17    1
    32    17    18    1
    33    17    29    1
    34    17    19    1
    35    19    20    1
    36    19    21    1
    37    21    22    1
    38    21    44    1
    39    21    45    1
    40    22    23    1
    41    22    46    1
    42    22    47    1
    43    23    29    1
    44    23    24    2
    45    24    25    1
    46    24    48    1
    47    25    26    2
    48    25    27    1
    49    27    28    1
    50    27    49    1
    51    27    50    1
    52    28    29    1
    53    28    51    1
    54    28    52    1
    55    29    30    1
    56    30    53    1
    57    30    54    1
    58    30    55    1
    59    31    56    1
    60    31    57    1
    61    31    58    1
    62    32    59    1
