@<TRIPOS>MOLECULE
ZINC00000018
 30 30 0 0 0
SMALL
GASTEIGER

@<TRIPOS>ATOM
      1 C           0.8114   -0.3797   -1.0790 C.3     1  UNL1       -0.0626
      2 C           0.0000   -0.0050    0.1628 C.3     1  UNL1       -0.0446
      3 C          -0.0236    1.5171    0.3164 C.3     1  UNL1       -0.0626
      4 C          -1.4312   -0.5247    0.0128 C.3     1  UNL1       -0.0236
      5 C          -1.4198   -2.0546    0.0031 C.3     1  UNL1        0.0993
      6 H          -0.7874   -2.4272   -0.8027 H       1  UNL1        0.0594
      7 C          -2.8292   -2.5976   -0.1261 C.2     1  UNL1        0.2416
      8 O          -3.6000   -2.4225   -1.0454 O.2     1  UNL1       -0.2732
      9 N          -3.0475   -3.3146    0.9940 N.am    1  UNL1       -0.2482
     10 C          -1.9831   -3.3002    1.8044 C.2     1  UNL1        0.1401
     11 S          -1.9233   -4.1106    3.3113 S.2     1  UNL1       -0.0183
     12 N          -0.9651   -2.5778    1.3030 N.am    1  UNL1       -0.3148
     13 C          -4.2964   -4.0217    1.2882 C.3     1  UNL1        0.0393
     14 C          -5.2302   -3.1031    2.0333 C.2     1  UNL1       -0.0735
     15 C          -6.4378   -2.8843    1.5750 C.2     1  UNL1       -0.1011
     16 H           1.8310   -0.0095   -0.9722 H       1  UNL1        0.0232
     17 H           0.8282   -1.4641   -1.1885 H       1  UNL1        0.0232
     18 H           0.3530    0.0674   -1.9611 H       1  UNL1        0.0232
     19 H           0.4584   -0.4521    1.0449 H       1  UNL1        0.0296
     20 H          -0.4006    1.9691   -0.6010 H       1  UNL1        0.0232
     21 H          -0.6732    1.7882    1.1486 H       1  UNL1        0.0232
     22 H           0.9862    1.8783    0.5111 H       1  UNL1        0.0232
     23 H          -2.0355   -0.1711    0.8482 H       1  UNL1        0.0290
     24 H          -1.8546   -0.1585   -0.9225 H       1  UNL1        0.0290
     25 H          -0.1003   -2.4298    1.7168 H       1  UNL1        0.1485
     26 H          -4.7641   -4.3365    0.3553 H       1  UNL1        0.0512
     27 H          -4.0825   -4.8973    1.9009 H       1  UNL1        0.0512
     28 H          -4.9039   -2.6251    2.9451 H       1  UNL1        0.0582
     29 H          -7.1070   -2.2260    2.1090 H       1  UNL1        0.0532
     30 H          -6.7641   -3.3623    0.6632 H       1  UNL1        0.0532
@<TRIPOS>BOND
     1     1     2    1
     2     1    16    1
     3     1    17    1
     4     1    18    1
     5     2     3    1
     6     2     4    1
     7     2    19    1
     8     3    20    1
     9     3    21    1
    10     3    22    1
    11     4     5    1
    12     4    23    1
    13     4    24    1
    14     5     6    1
    15     5    12    1
    16     5     7    1
    17     7     8    2
    18     7     9   am
    19     9    10    1
    20     9    13    1
    21    10    11    2
    22    10    12    1
    23    12    25    1
    24    13    14    1
    25    13    26    1
    26    13    27    1
    27    14    15    2
    28    14    28    1
    29    15    29    1
    30    15    30    1
