@<TRIPOS>MOLECULE
ZINC00896709
 37 38 0 0 0
SMALL
GASTEIGER

@<TRIPOS>ATOM
      1 C          -6.9980    1.8318    2.4875 C.3     1  UNL1        0.0817
      2 O          -6.3451    1.3019    1.3037 O.3     1  UNL1       -0.4674
      3 C          -5.0518    1.6160    1.1289 C.2     1  UNL1        0.3198
      4 O          -4.4842    2.3108    1.9382 O.2     1  UNL1       -0.2499
      5 C          -4.3079    1.1022   -0.0767 C.3     1  UNL1        0.1238
      6 H          -4.3157    0.0122   -0.0712 H       1  UNL1        0.0519
      7 C          -4.9770    1.6029   -1.3308 C.ar    1  UNL1       -0.0284
      8 C          -5.0918    2.9616   -1.5576 C.ar    1  UNL1       -0.0576
      9 C          -5.7016    3.4209   -2.7100 C.ar    1  UNL1       -0.0615
     10 C          -6.2051    2.5215   -3.6311 C.ar    1  UNL1       -0.0617
     11 C          -6.0944    1.1627   -3.4021 C.ar    1  UNL1       -0.0615
     12 C          -5.4808    0.7034   -2.2517 C.ar    1  UNL1       -0.0576
     13 C          -2.8625    1.6020   -0.0354 C.3     1  UNL1       -0.0053
     14 H          -2.8548    2.6920   -0.0414 H       1  UNL1        0.0862
     15 C          -2.1837    1.0946    1.2388 C.3     1  UNL1       -0.0084
     16 C          -0.7310    1.5804    1.2666 C.3     1  UNL1       -0.0431
     17 C          -0.0127    1.0858    0.0080 C.3     1  UNL1       -0.0124
     18 C          -0.7544    1.5936   -1.2306 C.3     1  UNL1       -0.0334
     19 H          -8.0371    1.5033    2.5070 H       1  UNL1        0.0661
     20 H          -6.4854    1.4688    3.3783 H       1  UNL1        0.0661
     21 H          -6.9615    2.9209    2.4657 H       1  UNL1        0.0661
     22 H          -4.7022    3.6644   -0.8360 H       1  UNL1        0.0621
     23 H          -5.7878    4.4825   -2.8891 H       1  UNL1        0.0618
     24 H          -6.6845    2.8803   -4.5299 H       1  UNL1        0.0618
     25 H          -6.4877    0.4600   -4.1217 H       1  UNL1        0.0618
     26 H          -5.3947   -0.3581   -2.0726 H       1  UNL1        0.0621
     27 H          -2.7126    1.4792    2.1108 H       1  UNL1        0.0320
     28 H          -2.2031    0.0048    1.2522 H       1  UNL1        0.0320
     29 H          -0.2306    1.1853    2.1506 H       1  UNL1        0.0269
     30 H          -0.7119    2.6699    1.2925 H       1  UNL1        0.0269
     31 H           0.0021   -0.0041    0.0020 H       1  UNL1        0.0317
     32 H           1.0097    1.4637    0.0003 H       1  UNL1        0.0317
     33 H          -0.7568    2.6836   -1.2310 H       1  UNL1        0.0814
     34 H          -0.2531    1.2312   -2.1281 H       1  UNL1        0.0814
     35 N          -2.1426    1.0939   -1.2187 N.4     1  UNL1        0.2300
     36 H          -2.6234    1.4107   -2.0689 H       1  UNL1        0.2016
     37 H          -2.1324    0.0675   -1.1936 H       1  UNL1        0.2016
@<TRIPOS>UNITY_ATOM_ATTR
35 1
charge 1
@<TRIPOS>BOND
     1     1     2    1
     2     1    19    1
     3     1    20    1
     4     1    21    1
     5     2     3    1
     6     3     4    2
     7     3     5    1
     8     5     6    1
     9     5     7    1
    10     5    13    1
    11     7    12   ar
    12     7     8   ar
    13     8     9   ar
    14     8    22    1
    15     9    10   ar
    16     9    23    1
    17    10    11   ar
    18    10    24    1
    19    11    12   ar
    20    11    25    1
    21    12    26    1
    22    13    14    1
    23    13    15    1
    24    13    35    1
    25    15    16    1
    26    15    27    1
    27    15    28    1
    28    16    17    1
    29    16    29    1
    30    16    30    1
    31    17    18    1
    32    17    31    1
    33    17    32    1
    34    18    33    1
    35    18    34    1
    36    18    35    1
    37    35    36    1
    38    35    37    1
