@<TRIPOS>MOLECULE
ZINC00125006
 25 26 0 0 0
SMALL
GASTEIGER

@<TRIPOS>ATOM
      1 C          -1.2190    1.7506    0.0173 C.ar    1  UNL1       -0.0617
      2 C          -0.0126    1.0758    0.0080 C.ar    1  UNL1       -0.0615
      3 C           1.1750    1.7832    0.0004 C.ar    1  UNL1       -0.0580
      4 C           1.1563    3.1654    0.0076 C.ar    1  UNL1       -0.0360
      5 C          -0.0501    3.8402    0.0228 C.ar    1  UNL1       -0.0580
      6 C          -1.2377    3.1328    0.0299 C.ar    1  UNL1       -0.0615
      7 C           2.4510    3.9366   -0.0006 C.3     1  UNL1        0.0715
      8 C           2.8692    4.2009   -1.4241 C.2     1  UNL1        0.2428
      9 C           2.8412    4.2086   -3.6835 C.3     1  UNL1        0.1197
     10 C           4.1050    4.9555   -3.2110 C.3     1  UNL1        0.1149
     11 N           4.0033    4.8859   -1.7432 N.pl3   1  UNL1       -0.2367
     12 H          -2.1469    1.1980    0.0188 H       1  UNL1        0.0618
     13 H           0.0021   -0.0041    0.0020 H       1  UNL1        0.0618
     14 H           2.1175    1.2560   -0.0115 H       1  UNL1        0.0620
     15 H          -0.0647    4.9201    0.0288 H       1  UNL1        0.0620
     16 H          -2.1802    3.6600    0.0414 H       1  UNL1        0.0618
     17 H           2.3126    4.8845    0.5194 H       1  UNL1        0.0434
     18 H           3.2233    3.3553    0.5031 H       1  UNL1        0.0434
     19 H           3.1122    3.3334   -4.2739 H       1  UNL1        0.0782
     20 H           2.1947    4.8716   -4.2585 H       1  UNL1        0.0782
     21 H           5.0049    4.4509   -3.5628 H       1  UNL1        0.0764
     22 H           4.0890    5.9917   -3.5487 H       1  UNL1        0.0764
     23 H           4.6366    5.2615   -1.1117 H       1  UNL1        0.2910
     24 N           2.1798    3.8016   -2.4324 N.2     1  UNL1       -0.2754
     25 H           1.2991    3.2770   -2.3743 H       1  UNL1        0.3036
@<TRIPOS>UNITY_ATOM_ATTR
24 1
charge 1
@<TRIPOS>BOND
     1     1     6   ar
     2     1     2   ar
     3     1    12    1
     4     2     3   ar
     5     2    13    1
     6     3     4   ar
     7     3    14    1
     8     4     5   ar
     9     4     7    1
    10     5     6   ar
    11     5    15    1
    12     6    16    1
    13     7     8    1
    14     7    17    1
    15     7    18    1
    16     8    11    1
    17     8    24    2
    18     9    10    1
    19     9    19    1
    20     9    20    1
    21     9    24    1
    22    10    11    1
    23    10    21    1
    24    10    22    1
    25    11    23    1
    26    24    25    1
