@<TRIPOS>MOLECULE
ZINC09302317
 46 47 0 0 0
SMALL
GASTEIGER

@<TRIPOS>ATOM
      1 C          -3.6590   -1.7639    2.9696 C.3     1  UNL1       -0.0185
      2 C          -4.4904   -0.4901    2.8049 C.3     1  UNL1        0.0097
      3 H          -4.1905    0.2393    3.5574 H       1  UNL1        0.0882
      4 C          -5.9735   -0.8229    2.9798 C.3     1  UNL1        0.1316
      5 O          -6.3386   -1.8632    2.0706 O.3     1  UNL1       -0.4864
      6 C          -7.6318   -2.2800    2.0972 C.ar    1  UNL1        0.1208
      7 C          -8.5295   -1.7037    2.9842 C.ar    1  UNL1       -0.0199
      8 C          -9.8450   -2.1250    3.0050 C.ar    1  UNL1       -0.0583
      9 C         -10.2644   -3.1286    2.1514 C.ar    1  UNL1       -0.0615
     10 C          -9.3703   -3.7085    1.2704 C.ar    1  UNL1       -0.0583
     11 C          -8.0552   -3.2866    1.2415 C.ar    1  UNL1       -0.0199
     12 C          -3.0730    0.9224    1.4416 C.3     1  UNL1        0.0056
     13 H          -2.3196    0.5101    2.1129 H       1  UNL1        0.0877
     14 C          -3.4448    2.3345    1.8981 C.3     1  UNL1       -0.0189
     15 C          -2.5132    0.9772    0.0188 C.3     1  UNL1        0.1222
     16 H          -2.3313   -0.0361   -0.3394 H       1  UNL1        0.0701
     17 C          -1.2196    1.7502    0.0173 C.ar    1  UNL1       -0.0136
     18 C          -0.0126    1.0758    0.0080 C.ar    1  UNL1       -0.0525
     19 C           1.1746    1.7822    0.0004 C.ar    1  UNL1       -0.0198
     20 C           1.1551    3.1693    0.0081 C.ar    1  UNL1        0.1169
     21 C          -0.0572    3.8436    0.0232 C.ar    1  UNL1       -0.0198
     22 C          -1.2416    3.1326    0.0307 C.ar    1  UNL1       -0.0525
     23 O           2.3216    3.8665    0.0002 O.3     1  UNL1       -0.5068
     24 O          -3.4554    1.6237   -0.8392 O.3     1  UNL1       -0.3816
     25 H          -3.8234   -2.1791    3.9639 H       1  UNL1        0.0285
     26 H          -3.9588   -2.4933    2.2171 H       1  UNL1        0.0285
     27 H          -2.6024   -1.5268    2.8450 H       1  UNL1        0.0285
     28 H          -6.1533   -1.1545    4.0024 H       1  UNL1        0.0754
     29 H          -6.5717    0.0650    2.7752 H       1  UNL1        0.0754
     30 H          -8.2013   -0.9231    3.6545 H       1  UNL1        0.0654
     31 H         -10.5453   -1.6735    3.6922 H       1  UNL1        0.0619
     32 H         -11.2921   -3.4598    2.1725 H       1  UNL1        0.0618
     33 H          -9.7004   -4.4918    0.6042 H       1  UNL1        0.0619
     34 H          -7.3571   -3.7401    0.5534 H       1  UNL1        0.0654
     35 H          -2.5576    2.9674    1.8809 H       1  UNL1        0.0285
     36 H          -4.1983    2.7468    1.2269 H       1  UNL1        0.0285
     37 H          -3.8437    2.2955    2.9118 H       1  UNL1        0.0285
     38 H           0.0021   -0.0041    0.0020 H       1  UNL1        0.0622
     39 H           2.1171    1.2550   -0.0118 H       1  UNL1        0.0654
     40 H          -0.0750    4.9235    0.0296 H       1  UNL1        0.0654
     41 H          -2.1857    3.6571    0.0422 H       1  UNL1        0.0622
     42 H           2.6505    4.0730   -0.8854 H       1  UNL1        0.2921
     43 H          -3.6652    2.5314   -0.5800 H       1  UNL1        0.2105
     44 N          -4.2751    0.0676    1.4564 N.4     1  UNL1        0.2354
     45 H          -5.0924    0.6278    1.1871 H       1  UNL1        0.2021
     46 H          -4.1520   -0.7016    0.7875 H       1  UNL1        0.2021
@<TRIPOS>UNITY_ATOM_ATTR
44 1
charge 1
@<TRIPOS>BOND
     1     1     2    1
     2     1    25    1
     3     1    26    1
     4     1    27    1
     5     2     3    1
     6     2     4    1
     7     2    44    1
     8     4     5    1
     9     4    28    1
    10     4    29    1
    11     5     6    1
    12     6    11   ar
    13     6     7   ar
    14     7     8   ar
    15     7    30    1
    16     8     9   ar
    17     8    31    1
    18     9    10   ar
    19     9    32    1
    20    10    11   ar
    21    10    33    1
    22    11    34    1
    23    12    13    1
    24    12    14    1
    25    12    15    1
    26    12    44    1
    27    14    35    1
    28    14    36    1
    29    14    37    1
    30    15    16    1
    31    15    17    1
    32    15    24    1
    33    17    22   ar
    34    17    18   ar
    35    18    19   ar
    36    18    38    1
    37    19    20   ar
    38    19    39    1
    39    20    21   ar
    40    20    23    1
    41    21    22   ar
    42    21    40    1
    43    22    41    1
    44    23    42    1
    45    24    43    1
    46    44    45    1
    47    44    46    1
