@<TRIPOS>MOLECULE
ZINC03977814
 50 53 0 0 0
SMALL
GASTEIGER

@<TRIPOS>ATOM
      1 C           5.5878   -7.5654    7.4246 C.3     1  UNL1        0.0346
      2 N           5.3244   -8.3167    6.1948 N.ar    1  UNL1       -0.2233
      3 C           4.5835   -7.9214    5.1327 C.ar    1  UNL1        0.2094
      4 N           4.6091   -8.9025    4.2568 N.ar    1  UNL1       -0.1015
      5 N           5.3212   -9.8775    4.6943 N.ar    1  UNL1       -0.0222
      6 N           5.7873   -9.6023    5.8642 N.ar    1  UNL1       -0.0435
      7 S           3.7382   -6.3852    4.9595 S.3     1  UNL1       -0.0801
      8 C           3.0065   -6.6121    3.3196 C.3     1  UNL1        0.0251
      9 C           2.2126   -5.3858    2.9497 C.2     1  UNL1       -0.0264
     10 CA          2.7998   -4.5537    2.1059 C.2     1  UNL1        0.0607
     11 N           2.1291   -3.4016    1.6505 N.am    1  UNL1       -0.2533
     12 C           0.9455   -2.7550    2.3085 C.3     1  UNL1        0.1041
     13 H           1.1523   -2.0783    3.1376 H       1  UNL1        0.0644
     14 CA          0.7856   -2.1079    0.9425 C.3     1  UNL1        0.1284
     15 HA         -0.0077   -2.5554    0.3438 H       1  UNL1        0.0622
     16 C           2.1661   -2.6037    0.5728 C.2     1  UNL1        0.2438
     17 O           2.9618   -2.3778   -0.3143 O.2     1  UNL1       -0.2731
     18 N           0.6911   -0.6471    1.0010 N.am    1  UNL1       -0.2984
     19 C           0.0750    0.0285    0.0109 C.2     1  UNL1        0.2592
     20 O          -0.4011   -0.5728   -0.9285 O.2     1  UNL1       -0.2713
     21 C          -0.0221    1.5312    0.0711 C.3     1  UNL1        0.2030
     22 H           0.9751    1.9554    0.1876 H       1  UNL1        0.0885
     23 C          -0.8789    1.9325    1.2441 C.ar    1  UNL1        0.0017
     24 C          -2.2567    1.8874    1.1411 C.ar    1  UNL1       -0.0546
     25 C          -3.0426    2.2518    2.2184 C.ar    1  UNL1       -0.0614
     26 C          -2.4508    2.6697    3.3957 C.ar    1  UNL1       -0.0617
     27 C          -1.0731    2.7194    3.4970 C.ar    1  UNL1       -0.0614
     28 C          -0.2871    2.3513    2.4211 C.ar    1  UNL1       -0.0546
     29 O          -0.6187    2.0272   -1.1562 O.3     1  UNL1       -0.4492
     30 C           0.2174    2.3253   -2.1631 C.2     1  UNL1        0.2953
     31 O          -0.2210    2.7422   -3.2090 O.2     1  UNL1       -0.2546
     32 S          -0.2100   -4.1114    2.6804 S.3     1  UNL1       -0.1311
     33 C           0.8646   -5.2691    3.5837 C.3     1  UNL1        0.0195
     34 C           4.1692   -4.8341    1.6379 C.2     1  UNL1        0.0860
     35 O           5.1211   -4.3607    2.2262 O.co2   1  UNL1       -0.5433
     36 H           4.8158   -7.7907    8.1604 H       1  UNL1        0.0474
     37 H           6.5623   -7.8491    7.8220 H       1  UNL1        0.0474
     38 H           5.5812   -6.4975    7.2065 H       1  UNL1        0.0474
     39 H           2.3484   -7.4809    3.3324 H       1  UNL1        0.0427
     40 H           3.7984   -6.7670    2.5868 H       1  UNL1        0.0427
     41 H           1.0720   -0.1662    1.7524 H       1  UNL1        0.1497
     42 H          -2.7191    1.5645    0.2201 H       1  UNL1        0.0622
     43 H          -4.1190    2.2133    2.1391 H       1  UNL1        0.0618
     44 H          -3.0648    2.9576    4.2362 H       1  UNL1        0.0618
     45 H          -0.6107    3.0462    4.4167 H       1  UNL1        0.0618
     46 H           0.7892    2.3905    2.5001 H       1  UNL1        0.0622
     47 H           1.2819    2.1925   -2.0383 H       1  UNL1        0.1512
     48 H           0.3935   -6.2519    3.5998 H       1  UNL1        0.0423
     49 H           0.9835   -4.9172    4.6085 H       1  UNL1        0.0423
     50 OXT         4.3653   -5.6156    0.5576 O.co2   1  UNL1       -0.5433
@<TRIPOS>UNITY_ATOM_ATTR
50 1
charge -1
@<TRIPOS>BOND
     1     1     2    1
     2     1    36    1
     3     1    37    1
     4     1    38    1
     5     2     6   ar
     6     2     3   ar
     7     3     4   ar
     8     3     7    1
     9     4     5   ar
    10     5     6   ar
    11     7     8    1
    12     8     9    1
    13     8    39    1
    14     8    40    1
    15     9    33    1
    16     9    10    2
    17    10    11    1
    18    10    34    1
    19    11    16   am
    20    11    12    1
    21    12    13    1
    22    12    14    1
    23    12    32    1
    24    14    15    1
    25    14    16    1
    26    14    18    1
    27    16    17    2
    28    18    19   am
    29    18    41    1
    30    19    20    2
    31    19    21    1
    32    21    22    1
    33    21    23    1
    34    21    29    1
    35    23    28   ar
    36    23    24   ar
    37    24    25   ar
    38    24    42    1
    39    25    26   ar
    40    25    43    1
    41    26    27   ar
    42    26    44    1
    43    27    28   ar
    44    27    45    1
    45    28    46    1
    46    29    30    1
    47    30    31    2
    48    30    47    1
    49    32    33    1
    50    33    48    1
    51    33    49    1
    52    34    35   ar
    53    34    50   ar
