@<TRIPOS>MOLECULE
ZINC11592886
 71 74 0 0 0
SMALL
GASTEIGER

@<TRIPOS>ATOM
      1 C          -2.7496    5.0016    1.5625 C.3     1  UNL1       -0.0562
      2 C          -2.1452    3.7581    2.2744 C.3     1  UNL1        0.0092
      3 C          -3.2271    2.7193    2.2683 C.3     1  UNL1       -0.0178
      4 C          -3.1227    1.6269    3.3304 C.3     1  UNL1        0.0600
      5 H          -2.3221    0.9423    3.0696 H       1  UNL1        0.0596
      6 C          -2.9239    2.2335    4.7088 C.3     1  UNL1        0.0007
      7 H          -3.8062    2.8769    4.9142 H       1  UNL1        0.0340
      8 C          -1.7116    3.1566    4.7273 C.3     1  UNL1       -0.0311
      9 H          -1.7386    3.6749    5.7101 H       1  UNL1        0.0308
     10 C          -1.7266    4.2313    3.6682 C.3     1  UNL1       -0.0292
     11 H          -2.3958    5.0609    3.9909 H       1  UNL1        0.0310
     12 C          -0.2882    4.7755    3.4694 C.3     1  UNL1       -0.0463
     13 C           0.3101    3.9339    2.3276 C.3     1  UNL1       -0.0161
     14 C          -0.8780    3.4079    1.4971 C.3     1  UNL1        0.1326
     15 C          -0.7230    1.9338    1.2499 C.2     1  UNL1        0.2022
     16 O          -0.1429    1.2444    2.0540 O.2     1  UNL1       -0.2907
     17 C          -1.2914    1.3157   -0.0015 C.3     1  UNL1        0.1530
     18 O          -1.0127   -0.1093   -0.0072 O.3     1  UNL1       -0.4568
     19 C          -1.4554   -0.8126   -1.0613 C.2     1  UNL1        0.3080
     20 O          -2.0558   -0.2559   -1.9498 O.2     1  UNL1       -0.2508
     21 C          -1.2035   -2.2965   -1.1365 C.3     1  UNL1        0.0498
     22 C          -1.8067   -2.8513   -2.4284 C.3     1  UNL1       -0.0277
     23 C          -1.1585   -2.1624   -3.6310 C.3     1  UNL1       -0.0596
     24 C          -1.5510   -4.3579   -2.5048 C.3     1  UNL1       -0.0596
     25 C          -3.3139   -2.5886   -2.4415 C.3     1  UNL1       -0.0596
     26 O          -0.8977    4.0923    0.2313 O.3     1  UNL1       -0.3804
     27 C          -0.4407    2.3077    4.7236 C.3     1  UNL1       -0.0458
     28 C          -0.2833    1.7825    6.1581 C.3     1  UNL1       -0.0302
     29 C          -1.5888    1.2013    6.6280 C.2     1  UNL1       -0.0559
     30 C          -1.5787    0.5810    7.8284 C.2     1  UNL1       -0.0149
     31 C          -2.8555   -0.0405    8.2648 C.2     1  UNL1        0.1787
     32 O          -2.8984   -1.1031    8.8590 O.2     1  UNL1       -0.2879
     33 C          -4.0779    0.7328    7.9207 C.2     1  UNL1       -0.0180
     34 C          -4.0659    1.3639    6.7340 C.2     1  UNL1       -0.0701
     35 C          -2.8579    1.2382    5.8423 C.3     1  UNL1        0.0131
     36 C          -2.9513   -0.1682    5.2535 C.3     1  UNL1       -0.0520
     37 O          -4.3838    0.9261    3.2733 O.3     1  UNL1       -0.3914
     38 H          -3.0018    4.7445    0.5337 H       1  UNL1        0.0236
     39 H          -3.6497    5.3197    2.0886 H       1  UNL1        0.0236
     40 H          -2.0210    5.8123    1.5662 H       1  UNL1        0.0236
     41 H          -3.3066    2.2546    1.2826 H       1  UNL1        0.0297
     42 H          -4.1912    3.2368    2.4306 H       1  UNL1        0.0297
     43 H           0.3006    4.6718    4.3823 H       1  UNL1        0.0269
     44 H          -0.3157    5.8333    3.1849 H       1  UNL1        0.0269
     45 H           0.8925    3.1023    2.7192 H       1  UNL1        0.0297
     46 H           0.9485    4.5601    1.6980 H       1  UNL1        0.0297
     47 H          -0.8715    1.7406   -0.8035 H       1  UNL1        0.0779
     48 H          -2.3693    1.4753   -0.0283 H       1  UNL1        0.0779
     49 H          -0.1297   -2.4837   -1.1272 H       1  UNL1        0.0383
     50 H          -1.6653   -2.7873   -0.2798 H       1  UNL1        0.0383
     51 H          -0.0847   -2.3496   -3.6217 H       1  UNL1        0.0235
     52 H          -1.5882   -2.5577   -4.5514 H       1  UNL1        0.0235
     53 H          -1.3407   -1.0891   -3.5766 H       1  UNL1        0.0235
     54 H          -2.0128   -4.8487   -1.6481 H       1  UNL1        0.0235
     55 H          -1.9807   -4.7532   -3.4252 H       1  UNL1        0.0235
     56 H          -0.4772   -4.5451   -2.4955 H       1  UNL1        0.0235
     57 H          -3.4961   -1.5153   -2.3871 H       1  UNL1        0.0235
     58 H          -3.7437   -2.9839   -3.3619 H       1  UNL1        0.0235
     59 H          -3.7757   -3.0794   -1.5848 H       1  UNL1        0.0235
     60 H          -0.1006    3.9596   -0.2999 H       1  UNL1        0.2108
     61 H          -0.5433    1.4660    4.0417 H       1  UNL1        0.0271
     62 H           0.4327    2.8994    4.4683 H       1  UNL1        0.0271
     63 H          -0.0002    2.6048    6.8110 H       1  UNL1        0.0310
     64 H           0.4826    1.0118    6.1763 H       1  UNL1        0.0310
     65 H          -0.6833    0.5383    8.4404 H       1  UNL1        0.0655
     66 H          -4.9295    0.7828    8.5909 H       1  UNL1        0.0653
     67 H          -4.9170    1.9612    6.4174 H       1  UNL1        0.0582
     68 H          -2.1211   -0.3301    4.5659 H       1  UNL1        0.0241
     69 H          -2.9053   -0.9026    6.0577 H       1  UNL1        0.0241
     70 H          -3.8939   -0.2756    4.7168 H       1  UNL1        0.0241
     71 H          -4.5678    0.5166    2.4169 H       1  UNL1        0.2098
@<TRIPOS>BOND
     1     1     2    1
     2     1    38    1
     3     1    39    1
     4     1    40    1
     5     2    10    1
     6     2    14    1
     7     2     3    1
     8     3     4    1
     9     3    41    1
    10     3    42    1
    11     4     5    1
    12     4     6    1
    13     4    37    1
    14     6     7    1
    15     6    35    1
    16     6     8    1
    17     8     9    1
    18     8    10    1
    19     8    27    1
    20    10    11    1
    21    10    12    1
    22    12    13    1
    23    12    43    1
    24    12    44    1
    25    13    14    1
    26    13    45    1
    27    13    46    1
    28    14    15    1
    29    14    26    1
    30    15    16    2
    31    15    17    1
    32    17    18    1
    33    17    47    1
    34    17    48    1
    35    18    19    1
    36    19    20    2
    37    19    21    1
    38    21    22    1
    39    21    49    1
    40    21    50    1
    41    22    23    1
    42    22    24    1
    43    22    25    1
    44    23    51    1
    45    23    52    1
    46    23    53    1
    47    24    54    1
    48    24    55    1
    49    24    56    1
    50    25    57    1
    51    25    58    1
    52    25    59    1
    53    26    60    1
    54    27    28    1
    55    27    61    1
    56    27    62    1
    57    28    29    1
    58    28    63    1
    59    28    64    1
    60    29    35    1
    61    29    30    2
    62    30    31    1
    63    30    65    1
    64    31    32    2
    65    31    33    1
    66    33    34    2
    67    33    66    1
    68    34    35    1
    69    34    67    1
    70    35    36    1
    71    36    68    1
    72    36    69    1
    73    36    70    1
    74    37    71    1
