@<TRIPOS>MOLECULE
ZINC12501020
 49 52 0 0 0
SMALL
GASTEIGER

@<TRIPOS>ATOM
      1 C           1.9206    5.2338    1.8699 C.3     1  UNL1       -0.0526
      2 C           2.4324    5.0808    0.4362 C.3     1  UNL1        0.0293
      3 C           1.4798    5.7670   -0.5241 C.3     1  UNL1       -0.0404
      4 C           0.0802    5.1951   -0.2543 C.3     1  UNL1       -0.0483
      5 C           0.0410    3.6782   -0.4180 C.3     1  UNL1       -0.0285
      6 H           0.1994    3.4295   -1.4673 H       1  UNL1        0.0312
      7 C           1.1196    2.9826    0.4313 C.3     1  UNL1       -0.0303
      8 H           0.9294    3.1193    1.4958 H       1  UNL1        0.0310
      9 C           2.4630    3.5788    0.0478 C.3     1  UNL1       -0.0252
     10 H           2.6397    3.4630   -1.0215 H       1  UNL1        0.0313
     11 C           3.6629    3.0838    0.8658 C.3     1  UNL1       -0.0424
     12 C           4.6828    4.2436    0.7029 C.3     1  UNL1        0.0067
     13 C           3.8738    5.4919    0.3662 C.2     1  UNL1        0.1395
     14 O           4.3052    6.5874    0.0977 O.2     1  UNL1       -0.2968
     15 C           1.1135    1.4915    0.0692 C.3     1  UNL1       -0.0311
     16 C          -0.2748    0.9409    0.2040 C.2     1  UNL1       -0.0839
     17 C          -1.3428    1.6724    0.1824 C.2     1  UNL1       -0.0648
     18 C          -1.3325    3.1662    0.0007 C.3     1  UNL1       -0.0078
     19 C          -1.7934    3.8348    1.2940 C.3     1  UNL1       -0.0413
     20 C          -2.7402    2.9025    2.0485 C.3     1  UNL1       -0.0258
     21 C          -3.5887    2.0714    1.0881 C.3     1  UNL1        0.0590
     22 H          -4.0342    2.7250    0.3383 H       1  UNL1        0.0596
     23 C          -2.7024    1.0267    0.3947 C.3     1  UNL1       -0.0051
     24 O          -4.6234    1.4091    1.8180 O.3     1  UNL1       -0.3915
     25 C          -2.3366    3.5225   -1.0973 C.3     1  UNL1       -0.0556
     26 H           2.5821    4.6985    2.5510 H       1  UNL1        0.0239
     27 H           1.9009    6.2902    2.1378 H       1  UNL1        0.0239
     28 H           0.9140    4.8219    1.9423 H       1  UNL1        0.0239
     29 H           1.4828    6.8424   -0.3459 H       1  UNL1        0.0275
     30 H           1.7747    5.5588   -1.5526 H       1  UNL1        0.0275
     31 H          -0.2165    5.4496    0.7632 H       1  UNL1        0.0269
     32 H          -0.6267    5.6440   -0.9521 H       1  UNL1        0.0269
     33 H           3.3898    2.9527    1.9129 H       1  UNL1        0.0272
     34 H           4.0598    2.1580    0.4494 H       1  UNL1        0.0272
     35 H           5.3258    4.0215   -0.0300 H       1  UNL1        0.0342
     36 H           5.2305    4.3934    1.6333 H       1  UNL1        0.0342
     37 H           1.7834    0.9532    0.7397 H       1  UNL1        0.0310
     38 H           1.4544    1.3669   -0.9586 H       1  UNL1        0.0310
     39 H          -0.3905   -0.1265    0.3213 H       1  UNL1        0.0572
     40 H          -0.9254    4.0625    1.9127 H       1  UNL1        0.0274
     41 H          -2.3182    4.7600    1.0557 H       1  UNL1        0.0274
     42 H          -3.3972    3.4979    2.6824 H       1  UNL1        0.0290
     43 H          -2.1496    2.2334    2.6744 H       1  UNL1        0.0290
     44 H          -3.1365    0.7487   -0.5657 H       1  UNL1        0.0335
     45 H          -2.6011    0.1452    1.0277 H       1  UNL1        0.0335
     46 H          -5.2027    0.8618    1.2702 H       1  UNL1        0.2098
     47 H          -1.9093    3.2846   -2.0715 H       1  UNL1        0.0238
     48 H          -3.2522    2.9491   -0.9523 H       1  UNL1        0.0238
     49 H          -2.5636    4.5875   -1.0504 H       1  UNL1        0.0238
@<TRIPOS>BOND
     1     1     2    1
     2     1    26    1
     3     1    27    1
     4     1    28    1
     5     2     9    1
     6     2    13    1
     7     2     3    1
     8     3     4    1
     9     3    29    1
    10     3    30    1
    11     4     5    1
    12     4    31    1
    13     4    32    1
    14     5     6    1
    15     5    18    1
    16     5     7    1
    17     7     8    1
    18     7     9    1
    19     7    15    1
    20     9    10    1
    21     9    11    1
    22    11    12    1
    23    11    33    1
    24    11    34    1
    25    12    13    1
    26    12    35    1
    27    12    36    1
    28    13    14    2
    29    15    16    1
    30    15    37    1
    31    15    38    1
    32    16    17    2
    33    16    39    1
    34    17    23    1
    35    17    18    1
    36    18    19    1
    37    18    25    1
    38    19    20    1
    39    19    40    1
    40    19    41    1
    41    20    21    1
    42    20    42    1
    43    20    43    1
    44    21    22    1
    45    21    23    1
    46    21    24    1
    47    23    44    1
    48    23    45    1
    49    24    46    1
    50    25    47    1
    51    25    48    1
    52    25    49    1
