@<TRIPOS>MOLECULE
ZINC11678081
 65 69 0 0 0
SMALL
GASTEIGER

@<TRIPOS>ATOM
      1 C          -2.1653    0.6044   -5.6883 C.3     1  UNL1       -0.0359
      2 C          -2.6843    0.4691   -4.2554 C.3     1  UNL1        0.0900
      3 H          -3.4207    1.2487   -4.0604 H       1  UNL1        0.0622
      4 C          -3.3355   -0.9048   -4.0756 C.3     1  UNL1        0.1234
      5 H          -3.7423   -0.9859   -3.0677 H       1  UNL1        0.0676
      6 C          -2.2801   -1.9936   -4.2923 C.3     1  UNL1        0.0093
      7 H          -1.9108   -1.9448   -5.3166 H       1  UNL1        0.0878
      8 C          -1.1213   -1.7674   -3.3165 C.3     1  UNL1        0.0439
      9 C          -0.5556   -0.3603   -3.5256 C.3     1  UNL1        0.1655
     10 H          -0.1578   -0.2748   -4.5368 H       1  UNL1        0.0912
     11 O          -1.5955    0.6022   -3.3396 O.3     1  UNL1       -0.3454
     12 O           0.4894   -0.1214   -2.5806 O.3     1  UNL1       -0.3431
     13 C           1.2487    1.0610   -2.8402 C.3     1  UNL1        0.0934
     14 H           0.5978    1.8161   -3.2809 H       1  UNL1        0.0649
     15 C           2.3723    0.7313   -3.8202 C.3     1  UNL1        0.0140
     16 C           3.3001    1.9482   -3.9173 C.3     1  UNL1        0.1300
     17 C           4.0522    2.0845   -2.5954 C.3     1  UNL1        0.0122
     18 C           3.0930    2.0601   -1.4331 C.ar    1  UNL1        0.0070
     19 C           1.8104    1.5851   -1.5435 C.ar    1  UNL1        0.0302
     20 C           0.9651    1.5790   -0.4260 C.ar    1  UNL1        0.1345
     21 C           1.4123    2.0594    0.8030 C.ar    1  UNL1        0.0784
     22 C           2.7303    2.5457    0.9168 C.ar    1  UNL1        0.0782
     23 C           3.5590    2.5444   -0.2038 C.ar    1  UNL1        0.1322
     24 O           4.8264    3.0161   -0.1035 O.3     1  UNL1       -0.5057
     25 C           3.2202    3.0547    2.2092 C.2     1  UNL1        0.1982
     26 O           4.3557    3.4783    2.3064 O.2     1  UNL1       -0.2865
     27 C           2.3286    3.0489    3.3877 C.ar    1  UNL1        0.0367
     28 C           2.7827    3.5269    4.6126 C.ar    1  UNL1       -0.0500
     29 C           1.9434    3.5190    5.7145 C.ar    1  UNL1       -0.0576
     30 C           0.6533    3.0400    5.6100 C.ar    1  UNL1       -0.0194
     31 C           0.1782    2.5577    4.3943 C.ar    1  UNL1        0.1283
     32 C           1.0147    2.5581    3.2738 C.ar    1  UNL1        0.0745
     33 C           0.5252    2.0495    1.9796 C.2     1  UNL1        0.2016
     34 O          -0.6103    1.6247    1.8825 O.2     1  UNL1       -0.2864
     35 O          -1.0903    2.0884    4.2969 O.3     1  UNL1       -0.5060
     36 O          -0.3008    1.1068   -0.5430 O.3     1  UNL1       -0.5057
     37 C           2.4843    3.1901   -4.1689 C.2     1  UNL1        0.1620
     38 O           2.1538    3.8930   -3.2443 O.2     1  UNL1       -0.2946
     39 C           2.0810    3.5547   -5.5744 C.3     1  UNL1       -0.0032
     40 O           4.2318    1.7596   -4.9843 O.3     1  UNL1       -0.3806
     41 O          -4.3877   -1.0630   -5.0295 O.3     1  UNL1       -0.3836
     42 H          -1.4292   -0.1755   -5.8833 H       1  UNL1        0.0255
     43 H          -2.9959    0.5029   -6.3867 H       1  UNL1        0.0255
     44 H          -1.7009    1.5823   -5.8157 H       1  UNL1        0.0255
     45 H          -0.3403   -2.5051   -3.5011 H       1  UNL1        0.0370
     46 H          -1.4824   -1.8664   -2.2928 H       1  UNL1        0.0370
     47 H           2.9335   -0.1306   -3.4591 H       1  UNL1        0.0326
     48 H           1.9512    0.5112   -4.8012 H       1  UNL1        0.0326
     49 H           4.7574    1.2593   -2.4966 H       1  UNL1        0.0347
     50 H           4.5994    3.0272   -2.5890 H       1  UNL1        0.0347
     51 H           4.9095    3.9622   -0.2854 H       1  UNL1        0.2922
     52 H           3.7905    3.9041    4.7045 H       1  UNL1        0.0625
     53 H           2.3014    3.8910    6.6631 H       1  UNL1        0.0619
     54 H           0.0087    3.0398    6.4766 H       1  UNL1        0.0654
     55 H          -1.7416    2.7621    4.0581 H       1  UNL1        0.2922
     56 H          -0.3985    0.1774   -0.2941 H       1  UNL1        0.2922
     57 H           2.4354    2.8699   -6.2111 H       1  UNL1        0.0307
     58 H           0.9937    3.5869   -5.6436 H       1  UNL1        0.0307
     59 H           2.4903    4.5327   -5.8277 H       1  UNL1        0.0307
     60 H           4.8498    2.4941   -5.1012 H       1  UNL1        0.2108
     61 H          -2.2004   -4.0480   -4.1846 H       1  UNL1        0.1998
     62 H          -3.2824   -3.3613   -3.1246 H       1  UNL1        0.1998
     63 H          -5.0901   -0.4027   -4.9535 H       1  UNL1        0.2102
     64 N          -2.8958   -3.3131   -4.0658 N.4     1  UNL1        0.2228
     65 H          -3.6517   -3.4541   -4.7462 H       1  UNL1        0.1998
@<TRIPOS>UNITY_ATOM_ATTR
64 1
charge 1
@<TRIPOS>BOND
     1     1     2    1
     2     1    42    1
     3     1    43    1
     4     1    44    1
     5     2     3    1
     6     2    11    1
     7     2     4    1
     8     4     5    1
     9     4     6    1
    10     4    41    1
    11     6     7    1
    12     6     8    1
    13     6    64    1
    14     8     9    1
    15     8    45    1
    16     8    46    1
    17     9    10    1
    18     9    11    1
    19     9    12    1
    20    12    13    1
    21    13    14    1
    22    13    19    1
    23    13    15    1
    24    15    16    1
    25    15    47    1
    26    15    48    1
    27    16    17    1
    28    16    37    1
    29    16    40    1
    30    17    18    1
    31    17    49    1
    32    17    50    1
    33    18    23   ar
    34    18    19   ar
    35    19    20   ar
    36    20    21   ar
    37    20    36    1
    38    21    33    1
    39    21    22   ar
    40    22    23   ar
    41    22    25    1
    42    23    24    1
    43    24    51    1
    44    25    26    2
    45    25    27    1
    46    27    32   ar
    47    27    28   ar
    48    28    29   ar
    49    28    52    1
    50    29    30   ar
    51    29    53    1
    52    30    31   ar
    53    30    54    1
    54    31    32   ar
    55    31    35    1
    56    32    33    1
    57    33    34    2
    58    35    55    1
    59    36    56    1
    60    37    38    2
    61    37    39    1
    62    39    57    1
    63    39    58    1
    64    39    59    1
    65    40    60    1
    66    41    63    1
    67    61    64    1
    68    62    64    1
    69    64    65    1
