@<TRIPOS>MOLECULE
ZINC03830372
 89 93 0 0 0
SMALL
GASTEIGER

@<TRIPOS>ATOM
      1 C          -0.5438    3.1673    2.4076 C.3     1  UNL1       -0.0562
      2 C           0.3456    3.4782    1.1746 C.3     1  UNL1        0.0055
      3 C          -0.4816    4.2592    0.1846 C.3     1  UNL1       -0.0264
      4 H          -1.4093    3.6307    0.0921 H       1  UNL1        0.0313
      5 C          -0.9815    5.6178    0.6495 C.3     1  UNL1       -0.0486
      6 C          -2.3083    5.8709   -0.0797 C.3     1  UNL1       -0.0459
      7 C          -2.2630    5.4042   -1.5287 C.3     1  UNL1       -0.0127
      8 C          -0.8585    5.2385   -2.0737 C.3     1  UNL1        0.0333
      9 H          -0.4060    6.1297   -2.1054 H       1  UNL1        0.0392
     10 C           0.0777    4.3919   -1.2220 C.3     1  UNL1       -0.0182
     11 C           0.3870    3.0141   -1.7809 C.3     1  UNL1       -0.0433
     12 C           1.3121    2.2522   -0.8268 C.3     1  UNL1       -0.0146
     13 C           0.7200    2.1199    0.5653 C.3     1  UNL1        0.1084
     14 H           1.4487    1.6307    1.2209 H       1  UNL1        0.0739
     15 O          -0.4714    1.2842    0.5064 O.3     1  UNL1       -0.4608
     16 C          -0.2910   -0.0421    0.6075 C.2     1  UNL1        0.3077
     17 O           0.8224   -0.4920    0.7407 O.2     1  UNL1       -0.2508
     18 C          -1.4773   -0.9700    0.5549 C.3     1  UNL1        0.0500
     19 C          -0.9994   -2.4170    0.6917 C.3     1  UNL1       -0.0031
     20 C          -2.1856   -3.3450    0.6391 C.2     1  UNL1        0.0423
     21 O          -3.2991   -2.8951    0.5059 O.co2   1  UNL1       -0.5498
     22 C           1.4012    5.1821   -1.2080 C.3     1  UNL1       -0.0586
     23 C          -0.9593    4.7415   -3.4971 C.2     1  UNL1        0.1602
     24 O          -0.3089    3.8283   -3.9557 O.2     1  UNL1       -0.2923
     25 C          -1.9085    5.4457   -4.3717 C.2     1  UNL1       -0.0188
     26 C          -2.8519    6.2353   -3.8582 C.2     1  UNL1       -0.0562
     27 C          -3.0899    6.3685   -2.3876 C.3     1  UNL1       -0.0043
     28 C          -3.0041    7.8145   -1.9495 C.3     1  UNL1       -0.0429
     29 C          -2.9990    8.7966   -3.1288 C.3     1  UNL1       -0.0463
     30 C          -4.0260    8.4183   -4.1753 C.3     1  UNL1       -0.0254
     31 C          -3.6221    7.0902   -4.8173 C.3     1  UNL1       -0.0127
     32 H          -2.8694    7.3642   -5.6135 H       1  UNL1        0.0351
     33 C          -4.7905    6.4890   -5.5547 C.3     1  UNL1       -0.0354
     34 C          -5.2111    7.4474   -6.6758 C.3     1  UNL1        0.0079
     35 C          -5.2329    8.9135   -6.2879 C.3     1  UNL1       -0.0420
     36 C          -4.1094    9.3872   -5.3650 C.3     1  UNL1       -0.0462
     37 C          -4.2766    7.2515   -7.8784 C.3     1  UNL1       -0.0544
     38 C          -6.6087    7.0529   -7.1184 C.2     1  UNL1        0.0476
     39 O          -7.2039    6.1797   -6.5327 O.co2   1  UNL1       -0.5493
     40 C          -5.4160    8.3982   -3.5451 C.3     1  UNL1       -0.0590
     41 C          -4.5229    5.8751   -2.1195 C.3     1  UNL1       -0.0553
     42 C          -3.0156    4.0636   -1.6399 C.3     1  UNL1       -0.0581
     43 C           1.5812    4.2078    1.6869 C.3     1  UNL1       -0.0562
     44 H           0.0183    2.5602    3.1172 H       1  UNL1        0.0236
     45 H          -0.8425    4.1007    2.8847 H       1  UNL1        0.0236
     46 H          -1.4318    2.6226    2.0870 H       1  UNL1        0.0236
     47 H          -1.1651    5.6174    1.7236 H       1  UNL1        0.0268
     48 H          -0.2755    6.4074    0.4068 H       1  UNL1        0.0268
     49 H          -3.0957    5.3215    0.4482 H       1  UNL1        0.0271
     50 H          -2.5386    6.9326   -0.0232 H       1  UNL1        0.0271
     51 H          -0.5300    2.4525   -1.9385 H       1  UNL1        0.0272
     52 H           0.9306    3.1135   -2.7297 H       1  UNL1        0.0272
     53 H           2.2889    2.7257   -0.7814 H       1  UNL1        0.0301
     54 H           1.4543    1.2385   -1.2357 H       1  UNL1        0.0301
     55 H          -2.1596   -0.7341    1.3715 H       1  UNL1        0.0381
     56 H          -1.9935   -0.8463   -0.3971 H       1  UNL1        0.0381
     57 H          -0.3170   -2.6530   -0.1249 H       1  UNL1        0.0330
     58 H          -0.4832   -2.5407    1.6437 H       1  UNL1        0.0330
     59 H           2.1717    4.5916   -0.7122 H       1  UNL1        0.0235
     60 H           1.7087    5.3942   -2.2320 H       1  UNL1        0.0235
     61 H           1.2592    6.1193   -0.6698 H       1  UNL1        0.0235
     62 H          -1.8343    5.3333   -5.4433 H       1  UNL1        0.0652
     63 H          -3.8284    8.0553   -1.2763 H       1  UNL1        0.0274
     64 H          -2.0649    7.9631   -1.3943 H       1  UNL1        0.0274
     65 H          -3.2218    9.8008   -2.7514 H       1  UNL1        0.0271
     66 H          -2.0026    8.8115   -3.5788 H       1  UNL1        0.0271
     67 H          -5.6291    6.2603   -4.9074 H       1  UNL1        0.0280
     68 H          -4.4696    5.5413   -6.0218 H       1  UNL1        0.0280
     69 H          -6.2077    9.1675   -5.8583 H       1  UNL1        0.0274
     70 H          -5.1647    9.5053   -7.2222 H       1  UNL1        0.0274
     71 H          -4.3382   10.3877   -4.9885 H       1  UNL1        0.0271
     72 H          -3.1577    9.4005   -5.8919 H       1  UNL1        0.0271
     73 H          -3.2696    7.5725   -7.6121 H       1  UNL1        0.0239
     74 H          -4.2602    6.1981   -8.1579 H       1  UNL1        0.0239
     75 H          -4.6368    7.8448   -8.7188 H       1  UNL1        0.0239
     76 H          -5.8379    9.4030   -3.5637 H       1  UNL1        0.0235
     77 H          -6.0604    7.7231   -4.1081 H       1  UNL1        0.0235
     78 H          -5.3423    8.0541   -2.5135 H       1  UNL1        0.0235
     79 H          -4.7015    5.8444   -1.0446 H       1  UNL1        0.0238
     80 H          -5.2348    6.5554   -2.5868 H       1  UNL1        0.0238
     81 H          -4.6473    4.8760   -2.5371 H       1  UNL1        0.0238
     82 H          -3.9559    4.1283   -1.0925 H       1  UNL1        0.0236
     83 H          -3.2197    3.8475   -2.6886 H       1  UNL1        0.0236
     84 H          -2.4032    3.2671   -1.2173 H       1  UNL1        0.0236
     85 H           2.3310    4.2515    0.8969 H       1  UNL1        0.0236
     86 H           1.3080    5.2200    1.9850 H       1  UNL1        0.0236
     87 H           1.9887    3.6737    2.5453 H       1  UNL1        0.0236
     88 O          -2.0053   -4.6712    0.7402 O.co2   1  UNL1       -0.5498
     89 O          -7.1830    7.6743   -8.1604 O.co2   1  UNL1       -0.5493
@<TRIPOS>UNITY_ATOM_ATTR
88 1
charge -1
89 1
charge -1
@<TRIPOS>BOND
     1     1     2    1
     2     1    44    1
     3     1    45    1
     4     1    46    1
     5     2    13    1
     6     2     3    1
     7     2    43    1
     8     3     4    1
     9     3    10    1
    10     3     5    1
    11     5     6    1
    12     5    47    1
    13     5    48    1
    14     6     7    1
    15     6    49    1
    16     6    50    1
    17     7    27    1
    18     7     8    1
    19     7    42    1
    20     8     9    1
    21     8    10    1
    22     8    23    1
    23    10    11    1
    24    10    22    1
    25    11    12    1
    26    11    51    1
    27    11    52    1
    28    12    13    1
    29    12    53    1
    30    12    54    1
    31    13    14    1
    32    13    15    1
    33    15    16    1
    34    16    17    2
    35    16    18    1
    36    18    19    1
    37    18    55    1
    38    18    56    1
    39    19    20    1
    40    19    57    1
    41    19    58    1
    42    20    21   ar
    43    20    88   ar
    44    22    59    1
    45    22    60    1
    46    22    61    1
    47    23    24    2
    48    23    25    1
    49    25    26    2
    50    25    62    1
    51    26    31    1
    52    26    27    1
    53    27    28    1
    54    27    41    1
    55    28    29    1
    56    28    63    1
    57    28    64    1
    58    29    30    1
    59    29    65    1
    60    29    66    1
    61    30    36    1
    62    30    31    1
    63    30    40    1
    64    31    32    1
    65    31    33    1
    66    33    34    1
    67    33    67    1
    68    33    68    1
    69    34    35    1
    70    34    37    1
    71    34    38    1
    72    35    36    1
    73    35    69    1
    74    35    70    1
    75    36    71    1
    76    36    72    1
    77    37    73    1
    78    37    74    1
    79    37    75    1
    80    38    39   ar
    81    38    89   ar
    82    40    76    1
    83    40    77    1
    84    40    78    1
    85    41    79    1
    86    41    80    1
    87    41    81    1
    88    42    82    1
    89    42    83    1
    90    42    84    1
    91    43    85    1
    92    43    86    1
    93    43    87    1
