@<TRIPOS>MOLECULE
ZINC03830975
 87 93 0 0 0
SMALL
GASTEIGER

@<TRIPOS>ATOM
      1 C           4.6497   23.1352   -4.2436 C.3     1  UNL1       -0.0634
      2 C           4.7483   23.9174   -2.9323 C.3     1  UNL1       -0.0334
      3 C           5.2815   23.0001   -1.8300 C.3     1  UNL1        0.0548
      4 H           6.2281   22.5629   -2.1475 H       1  UNL1        0.0544
      5 C           5.4979   23.8118   -0.5513 C.3     1  UNL1       -0.0424
      6 N           4.3124   21.9320   -1.5723 N.ar    1  UNL1       -0.2101
      7 C           4.5322   20.6063   -1.6950 C.ar    1  UNL1        0.3513
      8 O           5.5738   20.0769   -2.0394 O.2     1  UNL1       -0.2444
      9 N           3.3863   19.9756   -1.3685 N.ar    1  UNL1       -0.2501
     10 C           2.4510   20.9256   -1.0320 C.ar    1  UNL1        0.1251
     11 N           2.9868   22.0980   -1.1481 N.ar    1  UNL1       -0.1566
     12 C           3.1843   18.5865   -1.3666 C.ar    1  UNL1        0.0525
     13 C           1.9505   18.0652   -1.0020 C.ar    1  UNL1       -0.0359
     14 C           1.7513   16.6990   -1.0004 C.ar    1  UNL1       -0.0387
     15 C           2.7857   15.8462   -1.3637 C.ar    1  UNL1        0.0299
     16 C           4.0218   16.3680   -1.7230 C.ar    1  UNL1       -0.0387
     17 C           4.2184   17.7345   -1.7298 C.ar    1  UNL1       -0.0359
     18 N           2.5844   14.4623   -1.3623 N.pl3   1  UNL1       -0.3269
     19 C           3.8025   13.7525   -1.7770 C.3     1  UNL1        0.0280
     20 C           3.5180   12.2499   -1.8391 C.3     1  UNL1        0.0280
     21 N           3.0640   11.7851   -0.5209 N.pl3   1  UNL1       -0.3269
     22 C           1.8459   12.4949   -0.1062 C.3     1  UNL1        0.0280
     23 C           2.1304   13.9975   -0.0442 C.3     1  UNL1        0.0280
     24 C           2.8626   10.4003   -0.5195 C.ar    1  UNL1        0.0300
     25 C           2.4311    9.7622    0.6359 C.ar    1  UNL1       -0.0372
     26 C           2.2330    8.3954    0.6365 C.ar    1  UNL1       -0.0182
     27 C           2.4644    7.6602   -0.5166 C.ar    1  UNL1        0.1207
     28 C           2.9004    8.2960   -1.6696 C.ar    1  UNL1       -0.0182
     29 C           3.0944    9.6634   -1.6734 C.ar    1  UNL1       -0.0372
     30 O           2.2690    6.3143   -0.5151 O.3     1  UNL1       -0.4893
     31 C           2.5266    5.6200   -1.7373 C.3     1  UNL1        0.1179
     32 C           2.2535    4.1271   -1.5431 C.3     1  UNL1        0.1195
     33 H           1.2675    3.9663   -1.1071 H       1  UNL1        0.0654
     34 C           2.4011    3.3578   -2.8796 C.3     1  UNL1        0.0808
     35 O           2.7492    2.0254   -2.4524 O.3     1  UNL1       -0.3406
     36 C           3.2840    2.1293   -1.1262 C.3     1  UNL1        0.2186
     37 O           3.2852    3.5123   -0.7344 O.3     1  UNL1       -0.3342
     38 C           2.4176    1.3214   -0.1579 C.3     1  UNL1        0.1018
     39 N           2.3530   -0.0718   -0.6064 N.ar    1  UNL1       -0.2465
     40 C           2.6522   -1.1654    0.1159 C.ar    1  UNL1        0.1145
     41 N           2.4725   -2.2153   -0.6439 N.ar    1  UNL1       -0.2228
     42 C           2.0526   -1.8342   -1.8496 C.ar    1  UNL1        0.1379
     43 N           1.9671   -0.5301   -1.8766 N.ar    1  UNL1       -0.1582
     44 C           4.6946    1.5993   -1.1062 C.ar    1  UNL1        0.0313
     45 C           5.0394    0.5850   -0.2325 C.ar    1  UNL1       -0.0507
     46 C           6.3314    0.0946   -0.2175 C.ar    1  UNL1       -0.0429
     47 C           7.2835    0.6264   -1.0692 C.ar    1  UNL1        0.0424
     48 C           6.9405    1.6451   -1.9396 C.ar    1  UNL1       -0.0246
     49 C           5.6456    2.1318   -1.9581 C.ar    1  UNL1        0.0507
     50 CL          5.2140    3.4100   -3.0507 Cl      1  UNL1       -0.0830
     51 CL          8.9083    0.0155   -1.0449 Cl      1  UNL1       -0.0835
     52 H           5.6373   22.7680   -4.5226 H       1  UNL1        0.0230
     53 H           3.9718   22.2917   -4.1134 H       1  UNL1        0.0230
     54 H           4.2699   23.7888   -5.0288 H       1  UNL1        0.0230
     55 H           3.7607   24.2847   -2.6532 H       1  UNL1        0.0283
     56 H           5.4262   24.7610   -3.0625 H       1  UNL1        0.0283
     57 H           4.5512   24.2489   -0.2338 H       1  UNL1        0.0250
     58 H           5.8778   23.1582    0.2340 H       1  UNL1        0.0250
     59 H           6.2189   24.6064   -0.7430 H       1  UNL1        0.0250
     60 H           1.4359   20.7263   -0.7217 H       1  UNL1        0.1052
     61 H           1.1461   18.7284   -0.7198 H       1  UNL1        0.0639
     62 H           0.7913   16.2935   -0.7171 H       1  UNL1        0.0637
     63 H           4.8277   15.7050   -2.0013 H       1  UNL1        0.0637
     64 H           5.1782   18.1405   -2.0134 H       1  UNL1        0.0639
     65 H           4.5975   13.9426   -1.0560 H       1  UNL1        0.0479
     66 H           4.1120   14.1049   -2.7610 H       1  UNL1        0.0479
     67 H           4.4280   11.7188   -2.1184 H       1  UNL1        0.0479
     68 H           2.7420   12.0570   -2.5798 H       1  UNL1        0.0479
     69 H           1.0509   12.3048   -0.8273 H       1  UNL1        0.0479
     70 H           1.5368   12.1424    0.8778 H       1  UNL1        0.0479
     71 H           2.9064   14.1904    0.6965 H       1  UNL1        0.0479
     72 H           1.2204   14.5286    0.2351 H       1  UNL1        0.0479
     73 H           2.2502   10.3346    1.5336 H       1  UNL1        0.0637
     74 H           1.8975    7.8990    1.5350 H       1  UNL1        0.0655
     75 H           3.0846    7.7221   -2.5658 H       1  UNL1        0.0655
     76 H           3.4300   10.1588   -2.5725 H       1  UNL1        0.0637
     77 H           3.5680    5.7644   -2.0247 H       1  UNL1        0.0723
     78 H           1.8762    6.0095   -2.5204 H       1  UNL1        0.0723
     79 H           3.1979    3.7885   -3.4860 H       1  UNL1        0.0588
     80 H           1.4587    3.3529   -3.4273 H       1  UNL1        0.0588
     81 H           1.4123    1.7419   -0.1325 H       1  UNL1        0.0567
     82 H           2.8538    1.3619    0.8402 H       1  UNL1        0.0567
     83 H           2.9869   -1.1753    1.1426 H       1  UNL1        0.1044
     84 H           1.8245   -2.4952   -2.6726 H       1  UNL1        0.1065
     85 H           4.2977    0.1726    0.4355 H       1  UNL1        0.0623
     86 H           6.5991   -0.7009    0.4622 H       1  UNL1        0.0632
     87 H           7.6832    2.0603   -2.6048 H       1  UNL1        0.0647
@<TRIPOS>BOND
     1     1     2    1
     2     1    52    1
     3     1    53    1
     4     1    54    1
     5     2     3    1
     6     2    55    1
     7     2    56    1
     8     3     4    1
     9     3     5    1
    10     3     6    1
    11     5    57    1
    12     5    58    1
    13     5    59    1
    14     6    11   ar
    15     6     7   ar
    16     7     8    2
    17     7     9   ar
    18     9    10   ar
    19     9    12    1
    20    10    11   ar
    21    10    60    1
    22    12    17   ar
    23    12    13   ar
    24    13    14   ar
    25    13    61    1
    26    14    15   ar
    27    14    62    1
    28    15    16   ar
    29    15    18    1
    30    16    17   ar
    31    16    63    1
    32    17    64    1
    33    18    23    1
    34    18    19    1
    35    19    20    1
    36    19    65    1
    37    19    66    1
    38    20    21    1
    39    20    67    1
    40    20    68    1
    41    21    22    1
    42    21    24    1
    43    22    23    1
    44    22    69    1
    45    22    70    1
    46    23    71    1
    47    23    72    1
    48    24    29   ar
    49    24    25   ar
    50    25    26   ar
    51    25    73    1
    52    26    27   ar
    53    26    74    1
    54    27    28   ar
    55    27    30    1
    56    28    29   ar
    57    28    75    1
    58    29    76    1
    59    30    31    1
    60    31    32    1
    61    31    77    1
    62    31    78    1
    63    32    33    1
    64    32    37    1
    65    32    34    1
    66    34    35    1
    67    34    79    1
    68    34    80    1
    69    35    36    1
    70    36    37    1
    71    36    38    1
    72    36    44    1
    73    38    39    1
    74    38    81    1
    75    38    82    1
    76    39    43   ar
    77    39    40   ar
    78    40    41   ar
    79    40    83    1
    80    41    42   ar
    81    42    43   ar
    82    42    84    1
    83    44    49   ar
    84    44    45   ar
    85    45    46   ar
    86    45    85    1
    87    46    47   ar
    88    46    86    1
    89    47    48   ar
    90    47    51    1
    91    48    49   ar
    92    48    87    1
    93    49    50    1
