@<TRIPOS>MOLECULE
ZINC08101188
 73 75 0 0 0
SMALL
GASTEIGER

@<TRIPOS>ATOM
      1 C          -0.6181    4.0576    1.1019 C.3     1  UNL1       -0.0285
      2 C          -1.2742    2.8726    1.8135 C.3     1  UNL1        0.1311
      3 C          -0.7409    2.7767    3.2453 C.3     1  UNL1        0.0846
      4 O          -1.3112    1.6355    3.8892 O.3     1  UNL1       -0.3455
      5 C          -0.9943    0.3919    3.2607 C.3     1  UNL1        0.1911
      6 H           0.0876    0.2609    3.2387 H       1  UNL1        0.0939
      7 C          -1.5377    0.3920    1.8295 C.3     1  UNL1        0.1509
      8 H          -2.6238    0.4815    1.8512 H       1  UNL1        0.0703
      9 C          -0.9414    1.5781    1.0653 C.3     1  UNL1        0.0397
     10 H          -1.3658    1.6159    0.0620 H       1  UNL1        0.0907
     11 C           0.8876    0.5805   -0.1684 C.3     1  UNL1       -0.0444
     12 O          -1.1720   -0.8271    1.1798 O.3     1  UNL1       -0.3812
     13 O          -1.5892   -0.6791    3.9963 O.3     1  UNL1       -0.3371
     14 C          -0.9782   -0.9227    5.2649 C.3     1  UNL1        0.1325
     15 H          -0.2453   -0.1427    5.4709 H       1  UNL1        0.0681
     16 C          -0.2810   -2.2844    5.2421 C.3     1  UNL1        0.0104
     17 H           0.1851   -2.4702    6.2097 H       1  UNL1        0.0878
     18 C          -1.3098   -3.3793    4.9528 C.3     1  UNL1        0.0381
     19 C          -2.3816   -3.3734    6.0446 C.3     1  UNL1        0.0104
     20 H          -1.9155   -3.5592    7.0123 H       1  UNL1        0.0878
     21 C          -3.0788   -2.0117    6.0674 C.3     1  UNL1        0.1336
     22 H          -3.8424   -2.0074    6.8453 H       1  UNL1        0.0681
     23 C          -2.0500   -0.9167    6.3567 C.3     1  UNL1        0.1181
     24 H          -1.5840   -1.1026    7.3244 H       1  UNL1        0.0649
     25 O          -2.7012    0.3551    6.3780 O.3     1  UNL1       -0.3862
     26 O          -3.6898   -1.7680    4.7988 O.3     1  UNL1       -0.3258
     27 C          -5.0809   -2.0916    4.7520 C.3     1  UNL1        0.2452
     28 H          -5.2389   -3.0933    5.1516 H       1  UNL1        0.1116
     29 C          -5.5787   -2.0275    3.3013 C.3     1  UNL1        0.0430
     30 H          -5.0028   -2.7169    2.6840 H       1  UNL1        0.0915
     31 C          -7.0572   -2.4301    3.2853 C.3     1  UNL1        0.0178
     32 C          -7.7872   -1.6991    4.3790 C.2     1  UNL1       -0.0355
     33 C          -7.1669   -1.1329    5.3803 C.2     1  UNL1        0.1419
     34 O          -5.8231   -1.1422    5.5226 O.2     1  UNL1       -0.4570
     35 C          -7.9923   -0.4336    6.4294 C.3     1  UNL1        0.0231
     36 O          -2.6910    3.0565    1.8429 O.3     1  UNL1       -0.3809
     37 H          -0.9942    4.1217    0.0808 H       1  UNL1        0.0260
     38 H          -0.8554    4.9782    1.6349 H       1  UNL1        0.0260
     39 H           0.4626    3.9170    1.0829 H       1  UNL1        0.0260
     40 H          -1.0123    3.6778    3.7954 H       1  UNL1        0.0591
     41 H           0.3443    2.6771    3.2232 H       1  UNL1        0.0591
     42 H           0.4373   -0.4057   -0.0551 H       1  UNL1        0.0777
     43 H           1.9723    0.4818   -0.2105 H       1  UNL1        0.0777
     44 H           0.5285    1.0403   -1.0891 H       1  UNL1        0.0777
     45 H          -1.5163   -1.6212    1.6109 H       1  UNL1        0.2103
     46 H          -1.7758   -3.1935    3.9851 H       1  UNL1        0.0377
     47 H          -0.8131   -4.3495    4.9366 H       1  UNL1        0.0377
     48 H          -3.3945    0.4308    7.0479 H       1  UNL1        0.2100
     49 H          -7.1430   -3.5047    3.4463 H       1  UNL1        0.0365
     50 H          -7.4939   -2.1711    2.3208 H       1  UNL1        0.0365
     51 H          -8.8646   -1.6398    4.3348 H       1  UNL1        0.0609
     52 H          -7.6557    0.5984    6.5282 H       1  UNL1        0.0896
     53 H          -9.0416   -0.4469    6.1346 H       1  UNL1        0.0896
     54 H          -8.3806   -0.6745    8.4368 H       1  UNL1        0.1998
     55 H          -8.0810   -2.1003    7.6346 H       1  UNL1        0.1998
     56 H          -5.8082   -0.5817    1.8538 H       1  UNL1        0.1999
     57 H          -5.8643    0.0086    3.4076 H       1  UNL1        0.1999
     58 H          -2.9332   -5.3343    5.7466 H       1  UNL1        0.1998
     59 H          -4.1224   -4.3996    6.4379 H       1  UNL1        0.1998
     60 H           1.2835   -3.1450    4.2173 H       1  UNL1        0.1998
     61 H           0.3377   -2.1455    3.2834 H       1  UNL1        0.1998
     62 H          -2.9740    3.8589    2.3023 H       1  UNL1        0.2105
     63 N           0.5236    1.4271    0.9834 N.4     1  UNL1        0.2310
     64 H           0.8679    0.9908    1.8467 H       1  UNL1        0.2015
     65 H           0.9538    2.3528    0.8727 H       1  UNL1        0.2015
     66 N          -7.8115   -1.1216    7.7198 N.4     1  UNL1        0.2240
     67 H          -6.8237   -1.0689    7.9950 H       1  UNL1        0.1998
     68 N          -5.4070   -0.6573    2.7870 N.4     1  UNL1        0.2254
     69 H          -4.4051   -0.4376    2.7398 H       1  UNL1        0.1999
     70 N          -3.3770   -4.4174    5.7439 N.4     1  UNL1        0.2228
     71 H          -3.7793   -4.2427    4.8155 H       1  UNL1        0.1998
     72 N           0.7619   -2.2702    4.2011 N.4     1  UNL1        0.2228
     73 H           1.4072   -1.4920    4.3805 H       1  UNL1        0.1998
@<TRIPOS>UNITY_ATOM_ATTR
63 1
charge 1
66 1
charge 1
68 1
charge 1
70 1
charge 1
72 1
charge 1
@<TRIPOS>BOND
     1     1     2    1
     2     1    37    1
     3     1    38    1
     4     1    39    1
     5     2     9    1
     6     2     3    1
     7     2    36    1
     8     3     4    1
     9     3    40    1
    10     3    41    1
    11     4     5    1
    12     5     6    1
    13     5     7    1
    14     5    13    1
    15     7     8    1
    16     7     9    1
    17     7    12    1
    18     9    10    1
    19     9    63    1
    20    11    42    1
    21    11    43    1
    22    11    44    1
    23    11    63    1
    24    12    45    1
    25    13    14    1
    26    14    15    1
    27    14    23    1
    28    14    16    1
    29    16    17    1
    30    16    18    1
    31    16    72    1
    32    18    19    1
    33    18    46    1
    34    18    47    1
    35    19    20    1
    36    19    21    1
    37    19    70    1
    38    21    22    1
    39    21    23    1
    40    21    26    1
    41    23    24    1
    42    23    25    1
    43    25    48    1
    44    26    27    1
    45    27    28    1
    46    27    34    1
    47    27    29    1
    48    29    30    1
    49    29    31    1
    50    29    68    1
    51    31    32    1
    52    31    49    1
    53    31    50    1
    54    32    33    2
    55    32    51    1
    56    33    34    1
    57    33    35    1
    58    35    52    1
    59    35    53    1
    60    35    66    1
    61    36    62    1
    62    54    66    1
    63    55    66    1
    64    56    68    1
    65    57    68    1
    66    58    70    1
    67    59    70    1
    68    60    72    1
    69    61    72    1
    70    63    64    1
    71    63    65    1
    72    66    67    1
    73    68    69    1
    74    70    71    1
    75    72    73    1
