@<TRIPOS>MOLECULE
ZINC03830595
 46 49 0 0 0
SMALL
GASTEIGER

@<TRIPOS>ATOM
      1 C           0.4225   -0.4961    2.4987 C.3     1  UNL1       -0.0029
      2 C           0.1936   -0.8678    1.0563 C.ar    1  UNL1        0.1469
      3 C           0.1390   -0.0100   -0.0132 C.ar    1  UNL1        0.1060
      4 C          -0.0971   -0.9209   -1.1530 C.ar    1  UNL1        0.1271
      5 N          -0.1517   -2.1182   -0.6273 N.ar    1  UNL1       -0.0772
      6 O           0.0018   -2.0959    0.5693 O.2     1  UNL1       -0.3586
      7 C          -0.2406   -0.5568   -2.5835 C.ar    1  UNL1        0.0227
      8 C          -1.0699    0.4995   -2.9568 C.ar    1  UNL1       -0.0510
      9 C          -1.1994    0.8342   -4.2891 C.ar    1  UNL1       -0.0610
     10 C          -0.5081    0.1239   -5.2546 C.ar    1  UNL1       -0.0603
     11 C           0.3167   -0.9248   -4.8913 C.ar    1  UNL1       -0.0427
     12 C           0.4582   -1.2662   -3.5599 C.ar    1  UNL1        0.0503
     13 CL          1.4990   -2.5788   -3.1042 Cl      1  UNL1       -0.0829
     14 C           0.2857    1.4554   -0.0237 C.2     1  UNL1        0.2502
     15 O          -0.6784    2.1646    0.1920 O.2     1  UNL1       -0.2700
     16 N           1.4873    2.0105   -0.2778 N.am    1  UNL1       -0.2976
     17 CA          1.6333    3.4682   -0.2882 C.3     1  UNL1        0.1279
     18 HA          0.8854    3.9745    0.3221 H       1  UNL1        0.0622
     19 C           3.0639    3.9458   -0.0316 C.3     1  UNL1        0.1003
     20 H           3.8165    3.1645    0.0744 H       1  UNL1        0.0640
     21 N           2.9916    4.6261   -1.3472 N.am    1  UNL1       -0.2761
     22 C           1.7876    4.0556   -1.6755 C.2     1  UNL1        0.2401
     23 O           1.1114    4.0299   -2.6819 O.2     1  UNL1       -0.2734
     24 CA          2.9996    6.1142   -1.2688 C.3     1  UNL1        0.0807
     25 HA          1.9737    6.4822   -1.2536 H       1  UNL1        0.0576
     26 C           3.7400    6.6256   -0.0022 C.3     1  UNL1        0.0366
     27 S           3.1911    5.3181    1.1844 S.3     1  UNL1       -0.1275
     28 C           3.2443    8.0107    0.4182 C.3     1  UNL1       -0.0486
     29 C           5.2579    6.6103   -0.1934 C.3     1  UNL1       -0.0486
     30 C           3.6948    6.6496   -2.4941 C.2     1  UNL1        0.0635
     31 O           4.4603    5.9464   -3.1100 O.co2   1  UNL1       -0.5478
     32 H          -0.5360   -0.3035    2.9808 H       1  UNL1        0.0309
     33 H           0.9278   -1.3158    3.0093 H       1  UNL1        0.0309
     34 H           1.0411    0.3999    2.5492 H       1  UNL1        0.0309
     35 H          -1.6100    1.0552   -2.2046 H       1  UNL1        0.0625
     36 H          -1.8415    1.6527   -4.5791 H       1  UNL1        0.0618
     37 H          -0.6128    0.3898   -6.2961 H       1  UNL1        0.0618
     38 H           0.8544   -1.4752   -5.6491 H       1  UNL1        0.0632
     39 H           2.2554    1.4449   -0.4537 H       1  UNL1        0.1499
     40 H           3.6596    8.2645    1.3936 H       1  UNL1        0.0244
     41 H           3.5644    8.7496   -0.3164 H       1  UNL1        0.0244
     42 H           2.1559    8.0047    0.4771 H       1  UNL1        0.0244
     43 H           5.5682    5.6316   -0.5594 H       1  UNL1        0.0244
     44 H           5.5408    7.3751   -0.9167 H       1  UNL1        0.0244
     45 H           5.7462    6.8133    0.7597 H       1  UNL1        0.0244
     46 OXT         3.4636    7.9075   -2.9011 O.co2   1  UNL1       -0.5478
@<TRIPOS>UNITY_ATOM_ATTR
46 1
charge -1
@<TRIPOS>BOND
     1     1     2    1
     2     1    32    1
     3     1    33    1
     4     1    34    1
     5     2     6   ar
     6     2     3   ar
     7     3     4   ar
     8     3    14    1
     9     4     5   ar
    10     4     7    1
    11     5     6   ar
    12     7    12   ar
    13     7     8   ar
    14     8     9   ar
    15     8    35    1
    16     9    10   ar
    17     9    36    1
    18    10    11   ar
    19    10    37    1
    20    11    12   ar
    21    11    38    1
    22    12    13    1
    23    14    15    2
    24    14    16   am
    25    16    17    1
    26    16    39    1
    27    17    18    1
    28    17    22    1
    29    17    19    1
    30    19    20    1
    31    19    27    1
    32    19    21    1
    33    21    22   am
    34    21    24    1
    35    22    23    2
    36    24    25    1
    37    24    26    1
    38    24    30    1
    39    26    27    1
    40    26    28    1
    41    26    29    1
    42    28    40    1
    43    28    41    1
    44    28    42    1
    45    29    43    1
    46    29    44    1
    47    29    45    1
    48    30    31   ar
    49    30    46   ar
