@<TRIPOS>MOLECULE
ZINC02539484
 20 19 0 0 0
SMALL
GASTEIGER

@<TRIPOS>ATOM
      1 C          -0.8017    1.9868   -1.1173 C.3     1  UNL1       -0.0430
      2 C           0.0021   -0.0041    0.0020 C.3     1  UNL1       -0.0184
      3 C          -1.4090   -0.5347    0.2631 C.3     1  UNL1        0.0626
      4 CL         -1.3846   -2.3375    0.2532 Cl      1  UNL1       -0.1199
      5 C           1.3463    2.0098   -0.0000 C.3     1  UNL1       -0.0184
      6 C           1.2952    3.5169    0.2591 C.3     1  UNL1        0.0626
      7 CL          2.9695    4.1859    0.2467 Cl      1  UNL1       -0.1199
      8 H          -1.8268    1.6230   -1.0465 H       1  UNL1        0.0778
      9 H          -0.8000    3.0764   -1.0873 H       1  UNL1        0.0778
     10 H          -0.3600    1.6485   -2.0545 H       1  UNL1        0.0778
     11 H           0.3492   -0.3574   -0.9689 H       1  UNL1        0.0826
     12 H           0.6750   -0.3626    0.7809 H       1  UNL1        0.0826
     13 H          -1.7561   -0.1814    1.2341 H       1  UNL1        0.0482
     14 H          -2.0819   -0.1762   -0.5158 H       1  UNL1        0.0482
     15 H           1.9362    1.5270    0.7791 H       1  UNL1        0.0826
     16 H           1.8048    1.8234   -0.9711 H       1  UNL1        0.0826
     17 H           0.7053    3.9997   -0.5200 H       1  UNL1        0.0482
     18 H           0.8367    3.7033    1.2302 H       1  UNL1        0.0482
     19 N          -0.0305    1.4733    0.0344 N.4     1  UNL1        0.2347
     20 H          -0.4856    1.7779    0.9029 H       1  UNL1        0.2031
@<TRIPOS>UNITY_ATOM_ATTR
19 1
charge 1
@<TRIPOS>BOND
     1     1     8    1
     2     1     9    1
     3     1    10    1
     4     1    19    1
     5     2     3    1
     6     2    11    1
     7     2    12    1
     8     2    19    1
     9     3     4    1
    10     3    13    1
    11     3    14    1
    12     5     6    1
    13     5    15    1
    14     5    16    1
    15     5    19    1
    16     6     7    1
    17     6    17    1
    18     6    18    1
    19    19    20    1
