@<TRIPOS>MOLECULE
ZINC03830773
 65 69 0 0 0
SMALL
GASTEIGER

@<TRIPOS>ATOM
      1 C          -1.7685    0.5887   -1.6983 C.3     1  UNL1       -0.0559
      2 C          -0.7199    1.5972   -1.2225 C.3     1  UNL1        0.0081
      3 C           0.1808    0.9826   -0.1837 C.3     1  UNL1       -0.0434
      4 C          -0.3447    1.2437    1.2392 C.3     1  UNL1       -0.0453
      5 C          -1.8470    1.4441    1.2186 C.3     1  UNL1       -0.0125
      6 H          -2.3134    0.6072    0.7025 H       1  UNL1        0.0352
      7 C          -2.4947    1.4928    2.5738 C.ar    1  UNL1       -0.0406
      8 C          -1.9465    0.7681    3.6173 C.ar    1  UNL1       -0.0546
      9 C          -2.5447    0.7682    4.8612 C.ar    1  UNL1       -0.0199
     10 C          -3.6995    1.5096    5.0653 C.ar    1  UNL1        0.1171
     11 C          -4.2416    2.2399    4.0227 C.ar    1  UNL1       -0.0167
     12 C          -3.6442    2.2383    2.7683 C.ar    1  UNL1       -0.0405
     13 C          -4.2971    3.0642    1.6898 C.3     1  UNL1       -0.0270
     14 C          -3.7064    2.7645    0.3050 C.3     1  UNL1       -0.0454
     15 C          -2.1918    2.7443    0.4840 C.3     1  UNL1       -0.0305
     16 H          -1.9453    3.5750    1.1790 H       1  UNL1        0.0310
     17 C          -1.3570    2.9141   -0.7354 C.3     1  UNL1       -0.0288
     18 H          -0.5357    3.6261   -0.4955 H       1  UNL1        0.0310
     19 C          -2.0351    3.4304   -2.0124 C.3     1  UNL1       -0.0460
     20 C          -0.9971    3.0943   -3.1192 C.3     1  UNL1       -0.0149
     21 C           0.0087    2.0980   -2.4895 C.3     1  UNL1        0.1087
     22 H           0.9289    2.5975   -2.2115 H       1  UNL1        0.0739
     23 O           0.2553    0.9850   -3.3827 O.3     1  UNL1       -0.4608
     24 C           1.3420    1.0620   -4.1668 C.2     1  UNL1        0.3074
     25 O           2.0628    2.0299   -4.1069 O.2     1  UNL1       -0.2508
     26 C           1.6630   -0.0586   -5.1219 C.3     1  UNL1        0.0452
     27 C           2.9427    0.2771   -5.8903 C.3     1  UNL1       -0.0401
     28 C           3.2686   -0.8607   -6.8600 C.3     1  UNL1       -0.0405
     29 C           3.6490   -2.1323   -6.0738 C.3     1  UNL1       -0.0502
     30 C           4.7767   -2.7772   -6.9187 C.3     1  UNL1       -0.0528
     31 C           5.5746   -1.5481   -7.4202 C.3     1  UNL1       -0.0528
     32 C           4.4922   -0.4894   -7.7160 C.3     1  UNL1       -0.0502
     33 O          -4.2962    1.5185    6.2868 O.3     1  UNL1       -0.5068
     34 H          -2.4533    0.3635   -0.8807 H       1  UNL1        0.0236
     35 H          -2.3266    1.0116   -2.5336 H       1  UNL1        0.0236
     36 H          -1.2724   -0.3272   -2.0194 H       1  UNL1        0.0236
     37 H           0.2548   -0.0994   -0.3528 H       1  UNL1        0.0272
     38 H           1.1911    1.4040   -0.2786 H       1  UNL1        0.0272
     39 H          -0.0947    0.3881    1.8752 H       1  UNL1        0.0271
     40 H           0.1412    2.1325    1.6527 H       1  UNL1        0.0271
     41 H          -1.0473    0.1896    3.4647 H       1  UNL1        0.0622
     42 H          -2.1153    0.1948    5.6692 H       1  UNL1        0.0654
     43 H          -5.1389    2.8190    4.1858 H       1  UNL1        0.0657
     44 H          -4.1475    4.1201    1.9123 H       1  UNL1        0.0313
     45 H          -5.3641    2.8485    1.6711 H       1  UNL1        0.0313
     46 H          -3.9934    3.5491   -0.3906 H       1  UNL1        0.0271
     47 H          -4.0601    1.7970   -0.0407 H       1  UNL1        0.0271
     48 H          -2.9819    2.9310   -2.1938 H       1  UNL1        0.0269
     49 H          -2.1847    4.5111   -1.9500 H       1  UNL1        0.0269
     50 H          -1.4961    2.6351   -3.9720 H       1  UNL1        0.0301
     51 H          -0.4797    4.0008   -3.4324 H       1  UNL1        0.0301
     52 H           1.8071   -0.9828   -4.5623 H       1  UNL1        0.0378
     53 H           0.8394   -0.1841   -5.8248 H       1  UNL1        0.0378
     54 H           2.7987    1.2013   -6.4499 H       1  UNL1        0.0273
     55 H           3.7663    0.4025   -5.1874 H       1  UNL1        0.0273
     56 H           2.4108   -1.0611   -7.5018 H       1  UNL1        0.0301
     57 H           4.0174   -1.8716   -5.0817 H       1  UNL1        0.0268
     58 H           2.7944   -2.8050   -5.9998 H       1  UNL1        0.0268
     59 H           4.3595   -3.3352   -7.7569 H       1  UNL1        0.0265
     60 H           5.4050   -3.4206   -6.3028 H       1  UNL1        0.0265
     61 H           6.1249   -1.7950   -8.3281 H       1  UNL1        0.0265
     62 H           6.2543   -1.1926   -6.6458 H       1  UNL1        0.0265
     63 H           4.2284   -0.5105   -8.7734 H       1  UNL1        0.0268
     64 H           4.8538    0.5013   -7.4407 H       1  UNL1        0.0268
     65 H          -3.9798    2.2186    6.8740 H       1  UNL1        0.2921
@<TRIPOS>BOND
     1     1     2    1
     2     1    34    1
     3     1    35    1
     4     1    36    1
     5     2    17    1
     6     2    21    1
     7     2     3    1
     8     3     4    1
     9     3    37    1
    10     3    38    1
    11     4     5    1
    12     4    39    1
    13     4    40    1
    14     5     6    1
    15     5    15    1
    16     5     7    1
    17     7    12   ar
    18     7     8   ar
    19     8     9   ar
    20     8    41    1
    21     9    10   ar
    22     9    42    1
    23    10    11   ar
    24    10    33    1
    25    11    12   ar
    26    11    43    1
    27    12    13    1
    28    13    14    1
    29    13    44    1
    30    13    45    1
    31    14    15    1
    32    14    46    1
    33    14    47    1
    34    15    16    1
    35    15    17    1
    36    17    18    1
    37    17    19    1
    38    19    20    1
    39    19    48    1
    40    19    49    1
    41    20    21    1
    42    20    50    1
    43    20    51    1
    44    21    22    1
    45    21    23    1
    46    23    24    1
    47    24    25    2
    48    24    26    1
    49    26    27    1
    50    26    52    1
    51    26    53    1
    52    27    28    1
    53    27    54    1
    54    27    55    1
    55    28    32    1
    56    28    29    1
    57    28    56    1
    58    29    30    1
    59    29    57    1
    60    29    58    1
    61    30    31    1
    62    30    59    1
    63    30    60    1
    64    31    32    1
    65    31    61    1
    66    31    62    1
    67    32    63    1
    68    32    64    1
    69    33    65    1
