@<TRIPOS>MOLECULE
ZINC01530638
 41 42 0 0 0
SMALL
GASTEIGER

@<TRIPOS>ATOM
      1 C           6.7424    5.1862   -2.7885 C.3     1  UNL1       -0.0449
      2 C           5.3490    3.7455   -1.4299 C.3     1  UNL1       -0.0302
      3 C           4.1221    2.8317   -1.4520 C.3     1  UNL1        0.0287
      4 C           3.8923    2.2525   -0.0547 C.3     1  UNL1        0.1300
      5 H           4.7997    1.7536    0.2856 H       1  UNL1        0.0786
      6 C           2.7605    1.2586   -0.1027 C.ar    1  UNL1       -0.0072
      7 C           1.4510    1.7015   -0.0949 C.ar    1  UNL1       -0.0551
      8 C           0.4128    0.7898   -0.1391 C.ar    1  UNL1       -0.0614
      9 C           0.6840   -0.5647   -0.1895 C.ar    1  UNL1       -0.0617
     10 C           1.9935   -1.0076   -0.1959 C.ar    1  UNL1       -0.0614
     11 C           3.0317   -0.0959   -0.1527 C.ar    1  UNL1       -0.0551
     12 O           3.5613    3.3080    0.8500 O.3     1  UNL1       -0.4840
     13 C           3.8198    3.0955    2.1671 C.ar    1  UNL1        0.1214
     14 C           3.6365    4.1193    3.0852 C.ar    1  UNL1       -0.0194
     15 C           3.8950    3.8992    4.4243 C.ar    1  UNL1       -0.0467
     16 C           4.3461    2.6629    4.8484 C.ar    1  UNL1        0.0550
     17 C           4.5350    1.6426    3.9346 C.ar    1  UNL1       -0.0467
     18 C           4.2729    1.8561    2.5951 C.ar    1  UNL1       -0.0194
     19 C           4.6327    2.4272    6.3090 C.3     1  UNL1        0.4174
     20 F           5.9674    2.7473    6.5798 F       1  UNL1       -0.1659
     21 F           3.7931    3.2335    7.0850 F       1  UNL1       -0.1659
     22 F           4.4037    1.0822    6.6180 F       1  UNL1       -0.1659
     23 H           6.8828    5.5841   -3.7934 H       1  UNL1        0.0777
     24 H           6.5872    6.0087   -2.0903 H       1  UNL1        0.0777
     25 H           7.6273    4.6219   -2.4941 H       1  UNL1        0.0777
     26 H           5.1841    4.5581   -0.7224 H       1  UNL1        0.0815
     27 H           6.2243    3.1713   -1.1262 H       1  UNL1        0.0815
     28 H           4.2870    2.0191   -2.1596 H       1  UNL1        0.0356
     29 H           3.2468    3.4059   -1.7558 H       1  UNL1        0.0356
     30 H           1.2391    2.7598   -0.0558 H       1  UNL1        0.0621
     31 H          -0.6102    1.1360   -0.1386 H       1  UNL1        0.0618
     32 H          -0.1271   -1.2769   -0.2236 H       1  UNL1        0.0618
     33 H           2.2054   -2.0659   -0.2350 H       1  UNL1        0.0618
     34 H           4.0548   -0.4419   -0.1577 H       1  UNL1        0.0621
     35 H           3.2882    5.0864    2.7538 H       1  UNL1        0.0654
     36 H           3.7482    4.6946    5.1400 H       1  UNL1        0.0624
     37 H           4.8874    0.6778    4.2683 H       1  UNL1        0.0624
     38 H           4.4203    1.0587    1.8818 H       1  UNL1        0.0654
     39 N           5.5635    4.2995   -2.7800 N.4     1  UNL1        0.2249
     40 H           5.7142    3.5293   -3.4421 H       1  UNL1        0.2011
     41 H           4.7344    4.8357   -3.0617 H       1  UNL1        0.2011
@<TRIPOS>UNITY_ATOM_ATTR
39 1
charge 1
@<TRIPOS>BOND
     1     1    23    1
     2     1    24    1
     3     1    25    1
     4     1    39    1
     5     2     3    1
     6     2    26    1
     7     2    27    1
     8     2    39    1
     9     3     4    1
    10     3    28    1
    11     3    29    1
    12     4     5    1
    13     4     6    1
    14     4    12    1
    15     6    11   ar
    16     6     7   ar
    17     7     8   ar
    18     7    30    1
    19     8     9   ar
    20     8    31    1
    21     9    10   ar
    22     9    32    1
    23    10    11   ar
    24    10    33    1
    25    11    34    1
    26    12    13    1
    27    13    18   ar
    28    13    14   ar
    29    14    15   ar
    30    14    35    1
    31    15    16   ar
    32    15    36    1
    33    16    17   ar
    34    16    19    1
    35    17    18   ar
    36    17    37    1
    37    18    38    1
    38    19    20    1
    39    19    21    1
    40    19    22    1
    41    39    40    1
    42    39    41    1
