@<TRIPOS>MOLECULE
ZINC04062252
 51 54 0 0 0
SMALL
GASTEIGER

@<TRIPOS>ATOM
      1 C           4.6917    4.1049   -3.6403 C.3     1  UNL1       -0.0058
      2 C           3.8743    3.9795   -2.3805 C.2     1  UNL1        0.1339
      3 O           4.3845    3.5621   -1.3687 O.2     1  UNL1       -0.2974
      4 C           2.4207    4.3750   -2.3833 C.3     1  UNL1        0.0229
      5 H           2.2261    4.9234   -3.1965 H       1  UNL1        0.0383
      6 C           1.5331    3.1179   -2.3572 C.3     1  UNL1       -0.0427
      7 C           1.2077    2.8589   -0.8754 C.3     1  UNL1       -0.0485
      8 C           1.6268    4.1110   -0.1080 C.3     1  UNL1       -0.0284
      9 H           2.5519    3.8157    0.4557 H       1  UNL1        0.0312
     10 C           2.0714    5.1766   -1.1013 C.3     1  UNL1       -0.0192
     11 C           0.9499    6.1348   -1.4963 C.3     1  UNL1       -0.0464
     12 C           0.1360    6.6423   -0.3265 C.3     1  UNL1       -0.0484
     13 C          -0.4068    5.5381    0.5680 C.3     1  UNL1       -0.0251
     14 H          -0.6661    6.0726    1.5351 H       1  UNL1        0.0315
     15 C           0.6547    4.5457    0.9515 C.3     1  UNL1       -0.0156
     16 H           1.2906    5.0642    1.7224 H       1  UNL1        0.0349
     17 C           0.0975    3.3527    1.6846 C.2     1  UNL1       -0.0801
     18 C          -1.1910    3.0568    1.7081 C.2     1  UNL1       -0.0616
     19 C          -2.1751    3.8379    0.9704 C.2     1  UNL1       -0.0382
     20 C          -3.4902    3.5331    1.0775 C.2     1  UNL1       -0.0155
     21 C          -4.4828    4.2585    0.4039 C.2     1  UNL1        0.1564
     22 O          -5.6372    3.8733    0.4212 O.2     1  UNL1       -0.2927
     23 C          -4.1409    5.5227   -0.3430 C.3     1  UNL1        0.0107
     24 C          -2.7934    6.0693    0.1352 C.3     1  UNL1       -0.0363
     25 C          -1.7240    4.9677    0.0752 C.3     1  UNL1       -0.0032
     26 C          -1.6362    4.4502   -1.3580 C.3     1  UNL1       -0.0553
     27 C           3.2953    5.9573   -0.5899 C.3     1  UNL1       -0.0586
     28 H           5.1112    5.0119   -3.6765 H       1  UNL1        0.0306
     29 H           5.4716    3.3434   -3.6447 H       1  UNL1        0.0306
     30 H           4.0458    3.9684   -4.5076 H       1  UNL1        0.0306
     31 H           2.0744    2.2610   -2.7728 H       1  UNL1        0.0272
     32 H           0.6234    3.2915   -2.9318 H       1  UNL1        0.0272
     33 H           1.7892    1.9915   -0.5172 H       1  UNL1        0.0268
     34 H           0.1532    2.6279   -0.7356 H       1  UNL1        0.0268
     35 H           1.4442    7.0142   -1.9605 H       1  UNL1        0.0271
     36 H           0.3296    5.6956   -2.2703 H       1  UNL1        0.0271
     37 H           0.7520    7.3311    0.2726 H       1  UNL1        0.0269
     38 H          -0.6917    7.2582   -0.7011 H       1  UNL1        0.0269
     39 H           0.7914    2.7233    2.2350 H       1  UNL1        0.0575
     40 H          -1.5307    2.2023    2.2910 H       1  UNL1        0.0617
     41 H          -3.7847    2.6924    1.6940 H       1  UNL1        0.0655
     42 H          -4.0954    5.3289   -1.3230 H       1  UNL1        0.0345
     43 H          -4.9154    6.2771   -0.1403 H       1  UNL1        0.0345
     44 H          -2.8726    6.4219    1.1684 H       1  UNL1        0.0278
     45 H          -2.4894    6.8965   -0.5094 H       1  UNL1        0.0278
     46 H          -0.8028    3.7528   -1.4420 H       1  UNL1        0.0238
     47 H          -2.5641    3.9406   -1.6177 H       1  UNL1        0.0238
     48 H          -1.4791    5.2878   -2.0376 H       1  UNL1        0.0238
     49 H           4.0788    5.2565   -0.3015 H       1  UNL1        0.0235
     50 H           3.6653    6.6110   -1.3798 H       1  UNL1        0.0235
     51 H           3.0086    6.5574    0.2737 H       1  UNL1        0.0235
@<TRIPOS>BOND
     1     1     2    1
     2     1    28    1
     3     1    29    1
     4     1    30    1
     5     2     3    2
     6     2     4    1
     7     4     5    1
     8     4    10    1
     9     4     6    1
    10     6     7    1
    11     6    31    1
    12     6    32    1
    13     7     8    1
    14     7    33    1
    15     7    34    1
    16     8     9    1
    17     8    15    1
    18     8    10    1
    19    10    11    1
    20    10    27    1
    21    11    12    1
    22    11    35    1
    23    11    36    1
    24    12    13    1
    25    12    37    1
    26    12    38    1
    27    13    14    1
    28    13    25    1
    29    13    15    1
    30    15    16    1
    31    15    17    1
    32    17    18    2
    33    17    39    1
    34    18    19    1
    35    18    40    1
    36    19    25    1
    37    19    20    2
    38    20    21    1
    39    20    41    1
    40    21    22    2
    41    21    23    1
    42    23    24    1
    43    23    42    1
    44    23    43    1
    45    24    25    1
    46    24    44    1
    47    24    45    1
    48    25    26    1
    49    26    46    1
    50    26    47    1
    51    26    48    1
    52    27    49    1
    53    27    50    1
    54    27    51    1
