@<TRIPOS>MOLECULE
ZINC03831509
 78 85 0 0 0
SMALL
GASTEIGER

@<TRIPOS>ATOM
      1 C           8.1613   -0.0521   -0.4687 C.3     1  UNL1        0.0790
      2 O           7.8855   -0.2076    0.9248 O.3     1  UNL1       -0.4913
      3 C           6.7116    0.3041    1.3827 C.ar    1  UNL1        0.1653
      4 C           5.8444    0.9420    0.5087 C.ar    1  UNL1       -0.0123
      5 C           4.6510    1.4624    0.9732 C.ar    1  UNL1       -0.0320
      6 C           4.3194    1.3540    2.3107 C.ar    1  UNL1       -0.0123
      7 C           5.1783    0.7122    3.1901 C.ar    1  UNL1        0.1653
      8 C           6.3793    0.1880    2.7272 C.ar    1  UNL1        0.2010
      9 O           7.2276   -0.4377    3.5881 O.3     1  UNL1       -0.5009
     10 O           4.8484    0.6008    4.5047 O.3     1  UNL1       -0.4913
     11 C           3.5986    1.1627    4.9099 C.3     1  UNL1        0.0790
     12 C           3.7117    2.1553    0.0199 C.3     1  UNL1        0.0233
     13 H           4.1420    2.1639   -0.9815 H       1  UNL1        0.0405
     14 C           2.3764    1.4354   -0.0004 C.ar    1  UNL1       -0.0298
     15 C           2.4004    0.0475   -0.0126 C.ar    1  UNL1       -0.0120
     16 C           1.2224   -0.6761   -0.0132 C.ar    1  UNL1        0.1665
     17 C           0.0021   -0.0041    0.0020 C.ar    1  UNL1        0.1666
     18 C          -0.0167    1.3782    0.0096 C.ar    1  UNL1       -0.0102
     19 C           1.1689    2.1011    0.0022 C.ar    1  UNL1       -0.0109
     20 C           1.0607    3.6136   -0.0179 C.3     1  UNL1        0.0938
     21 H           0.2721    3.9184   -0.7058 H       1  UNL1        0.0651
     22 C           2.3933    4.1702   -0.4852 C.3     1  UNL1        0.0375
     23 H           2.5995    3.9276   -1.5277 H       1  UNL1        0.0370
     24 C           3.4629    3.5754    0.4855 C.3     1  UNL1        0.0758
     25 H           3.1049    3.5791    1.5151 H       1  UNL1        0.0427
     26 C           4.5950    4.5458    0.3234 C.2     1  UNL1        0.3116
     27 O           5.7674    4.2975    0.4771 O.2     1  UNL1       -0.2505
     28 O           4.0780    5.7476   -0.0242 O.3     1  UNL1       -0.4640
     29 C           2.6197    5.6605   -0.1855 C.3     1  UNL1        0.0987
     30 O           0.7693    4.0954    1.2955 O.3     1  UNL1       -0.3404
     31 C          -0.6268    4.2300    1.5688 C.3     1  UNL1        0.1886
     32 H          -1.1005    4.7918    0.7637 H       1  UNL1        0.0938
     33 C          -0.8158    4.9783    2.8895 C.3     1  UNL1        0.1341
     34 H          -0.4186    5.9888    2.7938 H       1  UNL1        0.0671
     35 C          -2.3085    5.0480    3.2347 C.3     1  UNL1        0.1144
     36 H          -2.8334    5.6279    2.4755 H       1  UNL1        0.0648
     37 C          -2.8629    3.6239    3.2743 C.3     1  UNL1        0.1187
     38 H          -2.3468    3.0544    4.0472 H       1  UNL1        0.0651
     39 C          -2.6240    2.9671    1.9086 C.3     1  UNL1        0.1137
     40 H          -3.1180    3.5524    1.1331 H       1  UNL1        0.0647
     41 O          -1.2218    2.9308    1.6525 O.3     1  UNL1       -0.3405
     42 C          -3.2178    1.5581    1.9391 C.3     1  UNL1        0.0798
     43 O          -4.6000    1.6595    2.3040 O.3     1  UNL1       -0.3440
     44 C          -4.8335    2.3094    3.5544 C.3     1  UNL1        0.1921
     45 H          -4.3770    1.7275    4.3550 H       1  UNL1        0.0970
     46 O          -4.2654    3.6239    3.5394 O.3     1  UNL1       -0.3382
     47 C          -6.3176    2.4092    3.7963 C.ar    1  UNL1        0.0451
     48 C          -7.2374    1.4170    3.8801 C.ar    1  UNL1       -0.0467
     49 C          -8.5592    1.7465    4.1144 C.ar    1  UNL1       -0.0543
     50 C          -8.8983    3.0525    4.2429 C.ar    1  UNL1       -0.0239
     51 S          -7.3218    3.8651    4.0390 S.2     1  UNL1       -0.0966
     52 O          -2.4777    5.6650    4.5125 O.3     1  UNL1       -0.3864
     53 O          -0.1188    4.2900    3.9299 O.3     1  UNL1       -0.3841
     54 O          -1.0038   -0.9269    0.0067 O.3     1  UNL1       -0.4526
     55 C          -0.3872   -2.1661    0.4035 C.3     1  UNL1        0.2332
     56 O           0.9803   -2.0194   -0.0228 O.3     1  UNL1       -0.4526
     57 H           9.1259   -0.5035   -0.7007 H       1  UNL1        0.0660
     58 H           7.3811   -0.5430   -1.0504 H       1  UNL1        0.0660
     59 H           8.1872    1.0087   -0.7178 H       1  UNL1        0.0660
     60 H           6.1019    1.0326   -0.5362 H       1  UNL1        0.0658
     61 H           3.3882    1.7661    2.6706 H       1  UNL1        0.0658
     62 H           7.8729    0.1515    4.0023 H       1  UNL1        0.2924
     63 H           3.5946    2.2316    4.6965 H       1  UNL1        0.0660
     64 H           2.7888    0.6800    4.3628 H       1  UNL1        0.0660
     65 H           3.4590    1.0052    5.9793 H       1  UNL1        0.0660
     66 H           3.3475   -0.4716   -0.0213 H       1  UNL1        0.0658
     67 H          -0.9619    1.9006    0.0169 H       1  UNL1        0.0659
     68 H           2.1121    5.9501    0.7346 H       1  UNL1        0.0701
     69 H           2.2864    6.2790   -1.0189 H       1  UNL1        0.0701
     70 H          -2.6875    0.9518    2.6734 H       1  UNL1        0.0588
     71 H          -3.1308    1.1015    0.9532 H       1  UNL1        0.0588
     72 H          -6.9414    0.3844    3.7682 H       1  UNL1        0.0627
     73 H          -9.3113    0.9750    4.1895 H       1  UNL1        0.0623
     74 H          -9.8700    3.4885    4.4219 H       1  UNL1        0.0693
     75 H          -2.1324    6.5669    4.5626 H       1  UNL1        0.2100
     76 H           0.8333    4.2109    3.7800 H       1  UNL1        0.2101
     77 H          -0.4400   -2.2910    1.4850 H       1  UNL1        0.1166
     78 H          -0.8583   -3.0080   -0.1038 H       1  UNL1        0.1166
@<TRIPOS>BOND
     1     1     2    1
     2     1    57    1
     3     1    58    1
     4     1    59    1
     5     2     3    1
     6     3     8   ar
     7     3     4   ar
     8     4     5   ar
     9     4    60    1
    10     5     6   ar
    11     5    12    1
    12     6     7   ar
    13     6    61    1
    14     7     8   ar
    15     7    10    1
    16     8     9    1
    17     9    62    1
    18    10    11    1
    19    11    63    1
    20    11    64    1
    21    11    65    1
    22    12    13    1
    23    12    24    1
    24    12    14    1
    25    14    19   ar
    26    14    15   ar
    27    15    16   ar
    28    15    66    1
    29    16    56    1
    30    16    17   ar
    31    17    18   ar
    32    17    54    1
    33    18    19   ar
    34    18    67    1
    35    19    20    1
    36    20    21    1
    37    20    22    1
    38    20    30    1
    39    22    23    1
    40    22    29    1
    41    22    24    1
    42    24    25    1
    43    24    26    1
    44    26    27    2
    45    26    28    1
    46    28    29    1
    47    29    68    1
    48    29    69    1
    49    30    31    1
    50    31    32    1
    51    31    41    1
    52    31    33    1
    53    33    34    1
    54    33    35    1
    55    33    53    1
    56    35    36    1
    57    35    37    1
    58    35    52    1
    59    37    38    1
    60    37    46    1
    61    37    39    1
    62    39    40    1
    63    39    41    1
    64    39    42    1
    65    42    43    1
    66    42    70    1
    67    42    71    1
    68    43    44    1
    69    44    45    1
    70    44    46    1
    71    44    47    1
    72    47    51   ar
    73    47    48   ar
    74    48    49   ar
    75    48    72    1
    76    49    50   ar
    77    49    73    1
    78    50    51   ar
    79    50    74    1
    80    52    75    1
    81    53    76    1
    82    54    55    1
    83    55    56    1
    84    55    77    1
    85    55    78    1
