@<TRIPOS>MOLECULE
ZINC03830319
 53 56 0 0 0
SMALL
GASTEIGER

@<TRIPOS>ATOM
      1 C           0.2406   -2.7289   -2.9260 C.ar    1  UNL1       -0.0617
      2 C           1.0279   -1.8457   -3.6409 C.ar    1  UNL1       -0.0614
      3 C           0.7863   -0.4868   -3.5647 C.ar    1  UNL1       -0.0558
      4 C          -0.2432   -0.0111   -2.7742 C.ar    1  UNL1       -0.0151
      5 C          -1.0274   -0.8939   -2.0556 C.ar    1  UNL1       -0.0558
      6 C          -0.7886   -2.2531   -2.1352 C.ar    1  UNL1       -0.0614
      7 C          -0.5066    1.4704   -2.6912 C.3     1  UNL1        0.1047
      8 C          -1.9787    1.7451   -3.0049 C.3     1  UNL1        0.0213
      9 C          -2.2269    3.2548   -3.0056 C.3     1  UNL1       -0.0289
     10 C          -3.7696    3.1371   -4.8675 C.3     1  UNL1       -0.0319
     11 C          -5.2389    3.2962   -5.2651 C.3     1  UNL1       -0.0123
     12 C          -5.6621    4.7539   -5.0633 C.3     1  UNL1       -0.0434
     13 C          -5.4268    5.1478   -3.6025 C.3     1  UNL1       -0.0123
     14 C          -3.9521    4.9350   -3.2531 C.3     1  UNL1       -0.0319
     15 C          -0.1845    1.9674   -1.2804 C.3     1  UNL1        0.0224
     16 C           1.0791    1.3497   -0.6010 C.3     1  UNL1       -0.0404
     17 C           1.3844    2.3262    0.5611 C.3     1  UNL1       -0.0459
     18 C           0.2658    3.4128    0.4367 C.3     1  UNL1       -0.0220
     19 H           0.4386    4.3501    0.9656 H       1  UNL1        0.0343
     20 C           0.1319    3.5002   -1.1278 C.3     1  UNL1       -0.0347
     21 C          -1.0258    2.6550    0.7672 C.2     1  UNL1       -0.0842
     22 C          -1.2855    1.8215   -0.2229 C.2     1  UNL1       -0.0784
     23 O           0.3177    2.1546   -3.6370 O.3     1  UNL1       -0.3829
     24 H           0.4293   -3.7906   -2.9856 H       1  UNL1        0.0618
     25 H           1.8320   -2.2174   -4.2587 H       1  UNL1        0.0618
     26 H           1.4016    0.2033   -4.1229 H       1  UNL1        0.0621
     27 H          -1.8290   -0.5219   -1.4346 H       1  UNL1        0.0621
     28 H          -1.4039   -2.9431   -1.5770 H       1  UNL1        0.0618
     29 H          -2.2237    1.3361   -3.9851 H       1  UNL1        0.0348
     30 H          -2.6055    1.2741   -2.2476 H       1  UNL1        0.0348
     31 H          -2.0964    3.6449   -1.9962 H       1  UNL1        0.0815
     32 H          -1.5179    3.7393   -3.6769 H       1  UNL1        0.0815
     33 H          -3.1513    3.7747   -5.4993 H       1  UNL1        0.0814
     34 H          -3.4691    2.0973   -4.9965 H       1  UNL1        0.0814
     35 H          -5.8565    2.6485   -4.6430 H       1  UNL1        0.0317
     36 H          -5.3647    3.0225   -6.3127 H       1  UNL1        0.0317
     37 H          -6.7196    4.8628   -5.3041 H       1  UNL1        0.0269
     38 H          -5.0711    5.3982   -5.7141 H       1  UNL1        0.0269
     39 H          -6.0473    4.5292   -2.9542 H       1  UNL1        0.0317
     40 H          -5.6862    6.1972   -3.4622 H       1  UNL1        0.0317
     41 H          -3.7841    5.2011   -2.2095 H       1  UNL1        0.0814
     42 H          -3.3329    5.5642   -3.8924 H       1  UNL1        0.0814
     43 H           0.8593    0.3536   -0.2168 H       1  UNL1        0.0275
     44 H           1.9123    1.3132   -1.3029 H       1  UNL1        0.0275
     45 H           1.3157    1.8134    1.5205 H       1  UNL1        0.0271
     46 H           2.3706    2.7735    0.4367 H       1  UNL1        0.0271
     47 H           1.0666    3.7838   -1.6116 H       1  UNL1        0.0280
     48 H          -0.6996    4.1314   -1.4411 H       1  UNL1        0.0280
     49 H          -1.6224    2.7825    1.6584 H       1  UNL1        0.0572
     50 H          -2.1305    1.1513   -0.2792 H       1  UNL1        0.0576
     51 H           0.1671    1.8890   -4.5545 H       1  UNL1        0.2107
     52 N          -3.6146    3.5086   -3.4449 N.4     1  UNL1        0.2353
     53 H          -4.2530    2.9365   -2.8798 H       1  UNL1        0.2033
@<TRIPOS>UNITY_ATOM_ATTR
52 1
charge 1
@<TRIPOS>BOND
     1     1     6   ar
     2     1     2   ar
     3     1    24    1
     4     2     3   ar
     5     2    25    1
     6     3     4   ar
     7     3    26    1
     8     4     5   ar
     9     4     7    1
    10     5     6   ar
    11     5    27    1
    12     6    28    1
    13     7     8    1
    14     7    15    1
    15     7    23    1
    16     8     9    1
    17     8    29    1
    18     8    30    1
    19     9    31    1
    20     9    32    1
    21     9    52    1
    22    10    11    1
    23    10    33    1
    24    10    34    1
    25    10    52    1
    26    11    12    1
    27    11    35    1
    28    11    36    1
    29    12    13    1
    30    12    37    1
    31    12    38    1
    32    13    14    1
    33    13    39    1
    34    13    40    1
    35    14    41    1
    36    14    42    1
    37    14    52    1
    38    15    20    1
    39    15    22    1
    40    15    16    1
    41    16    17    1
    42    16    43    1
    43    16    44    1
    44    17    18    1
    45    17    45    1
    46    17    46    1
    47    18    19    1
    48    18    20    1
    49    18    21    1
    50    20    47    1
    51    20    48    1
    52    21    22    2
    53    21    49    1
    54    22    50    1
    55    23    51    1
    56    52    53    1
