@<TRIPOS>MOLECULE
ZINC01481983
 39 42 0 0 0
SMALL
GASTEIGER

@<TRIPOS>ATOM
      1 C           6.2582   -0.1759   -1.1378 C.3     1  UNL1       -0.0448
      2 C           4.9246    1.4761    0.0263 C.3     1  UNL1       -0.0199
      3 C           3.6126    2.2619   -0.0183 C.3     1  UNL1        0.0609
      4 C           3.4624    3.1571   -1.2687 C.3     1  UNL1       -0.0335
      5 C           2.1354    3.9125   -1.2536 C.3     1  UNL1       -0.0409
      6 C           1.3109    3.5731    0.0083 C.3     1  UNL1        0.0098
      7 C           1.1704    2.0590    0.0019 C.ar    1  UNL1       -0.0358
      8 C           2.3818    1.3689   -0.0130 C.ar    1  UNL1       -0.0281
      9 C           2.4075    0.0040   -0.0207 C.ar    1  UNL1       -0.0573
     10 C           1.2030   -0.6883   -0.0130 C.ar    1  UNL1       -0.0615
     11 C           0.0021   -0.0041    0.0020 C.ar    1  UNL1       -0.0615
     12 C          -0.0168    1.3850    0.0097 C.ar    1  UNL1       -0.0577
     13 C           2.2245    3.8852    1.1828 C.ar    1  UNL1       -0.0358
     14 C           3.4353    3.1946    1.1692 C.ar    1  UNL1       -0.0281
     15 C           4.3529    3.3749    2.1639 C.ar    1  UNL1       -0.0573
     16 C           4.0595    4.2614    3.1926 C.ar    1  UNL1       -0.0615
     17 C           2.8593    4.9469    3.2055 C.ar    1  UNL1       -0.0615
     18 C           1.9298    4.7578    2.1906 C.ar    1  UNL1       -0.0577
     19 H           6.2946   -0.8189   -2.0172 H       1  UNL1        0.0777
     20 H           7.1074    0.5073   -1.1519 H       1  UNL1        0.0777
     21 H           6.3000   -0.7889   -0.2375 H       1  UNL1        0.0777
     22 H           5.7645    2.1707    0.0203 H       1  UNL1        0.0826
     23 H           4.9571    0.8745    0.9347 H       1  UNL1        0.0826
     24 H           4.2818    3.8754   -1.2938 H       1  UNL1        0.0279
     25 H           3.5082    2.5336   -2.1616 H       1  UNL1        0.0279
     26 H           1.5604    3.6417   -2.1392 H       1  UNL1        0.0275
     27 H           2.3353    4.9838   -1.2719 H       1  UNL1        0.0275
     28 H           0.3600    4.1040    0.0533 H       1  UNL1        0.0397
     29 H           3.3472   -0.5281   -0.0328 H       1  UNL1        0.0621
     30 H           1.2050   -1.7683   -0.0193 H       1  UNL1        0.0618
     31 H          -0.9279   -0.5531    0.0082 H       1  UNL1        0.0618
     32 H          -0.9538    1.9220    0.0170 H       1  UNL1        0.0621
     33 H           5.2901    2.8383    2.1512 H       1  UNL1        0.0621
     34 H           4.7739    4.4157    3.9877 H       1  UNL1        0.0618
     35 H           2.6426    5.6337    4.0102 H       1  UNL1        0.0618
     36 H           0.9909    5.2916    2.1986 H       1  UNL1        0.0621
     37 N           5.0010    0.5954   -1.1546 N.4     1  UNL1        0.2256
     38 H           4.2054   -0.0535   -1.1452 H       1  UNL1        0.2011
     39 H           4.9660    1.1674   -2.0066 H       1  UNL1        0.2011
@<TRIPOS>UNITY_ATOM_ATTR
37 1
charge 1
@<TRIPOS>BOND
     1     1    19    1
     2     1    20    1
     3     1    21    1
     4     1    37    1
     5     2     3    1
     6     2    22    1
     7     2    23    1
     8     2    37    1
     9     3     8    1
    10     3    14    1
    11     3     4    1
    12     4     5    1
    13     4    24    1
    14     4    25    1
    15     5     6    1
    16     5    26    1
    17     5    27    1
    18     6     7    1
    19     6    13    1
    20     6    28    1
    21     7    12   ar
    22     7     8   ar
    23     8     9   ar
    24     9    10   ar
    25     9    29    1
    26    10    11   ar
    27    10    30    1
    28    11    12   ar
    29    11    31    1
    30    12    32    1
    31    13    18   ar
    32    13    14   ar
    33    14    15   ar
    34    15    16   ar
    35    15    33    1
    36    16    17   ar
    37    16    34    1
    38    17    18   ar
    39    17    35    1
    40    18    36    1
    41    37    38    1
    42    37    39    1
