@<TRIPOS>MOLECULE
ZINC00001950
 35 37 0 0 0
SMALL
GASTEIGER

@<TRIPOS>ATOM
      1 C           5.3907   -1.1141   -3.0827 C.1     1  UNL1       -0.1176
      2 C           4.8711   -1.4573   -2.0875 C.1     1  UNL1       -0.0860
      3 C           4.2196   -1.8876   -0.8396 C.3     1  UNL1        0.0808
      4 N           3.9200   -0.7142   -0.0153 N.am    1  UNL1       -0.2577
      5 C           2.6883   -0.1034   -0.1965 C.ar    1  UNL1        0.0466
      6 C           1.5813   -0.9347   -0.3801 C.ar    1  UNL1       -0.0382
      7 C           0.3257   -0.4013   -0.5688 C.ar    1  UNL1       -0.0416
      8 C           0.1486    0.9735   -0.5792 C.ar    1  UNL1        0.0417
      9 C           1.2285    1.8080   -0.3999 C.ar    1  UNL1       -0.0324
     10 C           2.5136    1.2788   -0.2049 C.ar    1  UNL1        0.0233
     11 C           3.6212    2.2289   -0.0158 C.2     1  UNL1        0.0750
     12 N           4.5818    2.0806    0.8262 N.2     1  UNL1       -0.2734
     13 C           4.6700    0.9104    1.6987 C.3     1  UNL1        0.1170
     14 C           4.8512   -0.3178    0.8492 C.2     1  UNL1        0.2420
     15 O           5.8725   -0.9635    0.9546 O.2     1  UNL1       -0.2732
     16 C           3.6305    3.4474   -0.8585 C.ar    1  UNL1        0.0006
     17 C           2.9601    3.4579   -2.0815 C.ar    1  UNL1       -0.0526
     18 C           2.9675    4.5976   -2.8592 C.ar    1  UNL1       -0.0611
     19 C           3.6477    5.7246   -2.4334 C.ar    1  UNL1       -0.0617
     20 C           4.3193    5.7184   -1.2239 C.ar    1  UNL1       -0.0611
     21 C           4.3143    4.5866   -0.4347 C.ar    1  UNL1       -0.0526
     22 CL         -1.4341    1.6429   -0.8255 Cl      1  UNL1       -0.0835
     23 H           5.8554   -0.8072   -3.9729 H       1  UNL1        0.1228
     24 H           4.8861   -2.5549   -0.2932 H       1  UNL1        0.0605
     25 H           3.2936   -2.4120   -1.0754 H       1  UNL1        0.0605
     26 H           1.7112   -2.0068   -0.3737 H       1  UNL1        0.0637
     27 H          -0.5224   -1.0552   -0.7086 H       1  UNL1        0.0633
     28 H           1.0857    2.8785   -0.4093 H       1  UNL1        0.0639
     29 H           3.7533    0.8194    2.2812 H       1  UNL1        0.0605
     30 H           5.5209    1.0178    2.3714 H       1  UNL1        0.0605
     31 H           2.4328    2.5772   -2.4171 H       1  UNL1        0.0624
     32 H           2.4448    4.6086   -3.8042 H       1  UNL1        0.0618
     33 H           3.6541    6.6130   -3.0476 H       1  UNL1        0.0618
     34 H           4.8488    6.6011   -0.8970 H       1  UNL1        0.0618
     35 H           4.8387    4.5830    0.5095 H       1  UNL1        0.0624
@<TRIPOS>BOND
     1     1     2    3
     2     1    23    1
     3     2     3    1
     4     3     4    1
     5     3    24    1
     6     3    25    1
     7     4    14   am
     8     4     5    1
     9     5    10   ar
    10     5     6   ar
    11     6     7   ar
    12     6    26    1
    13     7     8   ar
    14     7    27    1
    15     8     9   ar
    16     8    22    1
    17     9    10   ar
    18     9    28    1
    19    10    11    1
    20    11    12    2
    21    11    16    1
    22    12    13    1
    23    13    14    1
    24    13    29    1
    25    13    30    1
    26    14    15    2
    27    16    21   ar
    28    16    17   ar
    29    17    18   ar
    30    17    31    1
    31    18    19   ar
    32    18    32    1
    33    19    20   ar
    34    19    33    1
    35    20    21   ar
    36    20    34    1
    37    21    35    1
