@<TRIPOS>MOLECULE
ZINC03831513
 46 49 0 0 0
SMALL
GASTEIGER

@<TRIPOS>ATOM
      1 C           2.7622    3.9457    4.1045 C.3     1  UNL1       -0.0246
      2 C           3.7590    4.5412    3.1124 C.3     1  UNL1        0.1138
      3 C           3.1215    5.6439    2.2851 C.3     1  UNL1       -0.0125
      4 C           2.2651    5.1173    1.1397 C.3     1  UNL1       -0.0453
      5 C           2.1391    3.6030    1.1556 C.3     1  UNL1       -0.0251
      6 H           1.5944    3.2905    2.0615 H       1  UNL1        0.0315
      7 C           3.5093    2.9395    1.1447 C.3     1  UNL1       -0.0304
      8 H           3.9987    3.1395    0.1778 H       1  UNL1        0.0308
      9 C           4.4167    3.4907    2.2315 C.3     1  UNL1        0.0024
     10 H           5.2711    3.9878    1.7180 H       1  UNL1        0.0342
     11 C           5.0225    2.3791    3.0871 C.3     1  UNL1       -0.0363
     12 C           6.0391    2.9833    4.0639 C.3     1  UNL1        0.0453
     13 C           5.4661    4.2265    4.7025 C.2     1  UNL1        0.3076
     14 O           5.5610    4.4075    5.8942 O.2     1  UNL1       -0.2508
     15 O           4.8447    5.1360    3.9169 O.3     1  UNL1       -0.4581
     16 C           3.3669    1.4219    1.2836 C.3     1  UNL1       -0.0458
     17 C           2.5717    0.8688    0.0935 C.3     1  UNL1       -0.0302
     18 C           1.2471    1.6065    0.0342 C.2     1  UNL1       -0.0560
     19 C           0.1233    0.9051    0.0417 C.2     1  UNL1       -0.0149
     20 C          -1.1822    1.5829    0.0603 C.2     1  UNL1        0.1787
     21 O          -2.2160    0.9422    0.0818 O.2     1  UNL1       -0.2879
     22 C          -1.2043    3.0553    0.0615 C.2     1  UNL1       -0.0180
     23 C          -0.0697    3.7340    0.0254 C.2     1  UNL1       -0.0702
     24 C           1.2851    3.1086   -0.0183 C.3     1  UNL1        0.0108
     25 C           1.9351    3.5159   -1.3374 C.3     1  UNL1       -0.0521
     26 H           1.8594    3.6422    3.5746 H       1  UNL1        0.0268
     27 H           3.2077    3.0775    4.5902 H       1  UNL1        0.0268
     28 H           2.5083    4.6924    4.8569 H       1  UNL1        0.0268
     29 H           3.9111    6.2855    1.8723 H       1  UNL1        0.0304
     30 H           2.4989    6.2718    2.9352 H       1  UNL1        0.0304
     31 H           2.7168    5.4493    0.1988 H       1  UNL1        0.0270
     32 H           1.2686    5.5693    1.2077 H       1  UNL1        0.0270
     33 H           5.5566    1.6757    2.4346 H       1  UNL1        0.0274
     34 H           4.2556    1.8342    3.6267 H       1  UNL1        0.0274
     35 H           6.9574    3.2319    3.5310 H       1  UNL1        0.0378
     36 H           6.2641    2.2509    4.8448 H       1  UNL1        0.0378
     37 H           2.8476    1.1824    2.2094 H       1  UNL1        0.0271
     38 H           4.3555    0.9614    1.2836 H       1  UNL1        0.0271
     39 H           2.3941   -0.1973    0.2392 H       1  UNL1        0.0310
     40 H           3.1299    1.0213   -0.8275 H       1  UNL1        0.0310
     41 H           0.1649   -0.1742    0.0635 H       1  UNL1        0.0655
     42 H          -2.1486    3.5792    0.1010 H       1  UNL1        0.0653
     43 H          -0.1269    4.8126    0.0298 H       1  UNL1        0.0582
     44 H           1.3479    3.1243   -2.1680 H       1  UNL1        0.0241
     45 H           1.9756    4.6033   -1.4019 H       1  UNL1        0.0241
     46 H           2.9461    3.1112   -1.3845 H       1  UNL1        0.0241
@<TRIPOS>BOND
     1     1     2    1
     2     1    26    1
     3     1    27    1
     4     1    28    1
     5     2     9    1
     6     2    15    1
     7     2     3    1
     8     3     4    1
     9     3    29    1
    10     3    30    1
    11     4     5    1
    12     4    31    1
    13     4    32    1
    14     5     6    1
    15     5    24    1
    16     5     7    1
    17     7     8    1
    18     7     9    1
    19     7    16    1
    20     9    10    1
    21     9    11    1
    22    11    12    1
    23    11    33    1
    24    11    34    1
    25    12    13    1
    26    12    35    1
    27    12    36    1
    28    13    14    2
    29    13    15    1
    30    16    17    1
    31    16    37    1
    32    16    38    1
    33    17    18    1
    34    17    39    1
    35    17    40    1
    36    18    24    1
    37    18    19    2
    38    19    20    1
    39    19    41    1
    40    20    21    2
    41    20    22    1
    42    22    23    2
    43    22    42    1
    44    23    24    1
    45    23    43    1
    46    24    25    1
    47    25    44    1
    48    25    45    1
    49    25    46    1
