@<TRIPOS>MOLECULE
ZINC03830439
 46 48 0 0 0
SMALL
GASTEIGER

@<TRIPOS>ATOM
      1 C           2.1771   -2.3789    0.2808 C.3     1  UNL1        0.0332
      2 C           0.8542   -1.7072    0.5449 C.2     1  UNL1        0.3043
      3 O           0.2848   -1.8864    1.5954 O.2     1  UNL1       -0.2512
      4 O           0.3085   -0.9098   -0.3868 O.3     1  UNL1       -0.4603
      5 C          -0.9084   -0.2068   -0.0221 C.3     1  UNL1        0.1164
      6 C          -1.4370    0.5378   -1.2210 C.2     1  UNL1        0.0004
      7 CA         -2.5752    1.1897   -1.0382 C.2     1  UNL1        0.0631
      8 N          -3.1223    1.9628   -2.0759 N.am    1  UNL1       -0.2533
      9 C          -2.8159    1.8345   -3.5363 C.3     1  UNL1        0.1041
     10 H          -3.3307    1.0417   -4.0789 H       1  UNL1        0.0644
     11 CA         -3.4281    3.2253   -3.6648 C.3     1  UNL1        0.1286
     12 HA         -2.6922    4.0147   -3.8178 H       1  UNL1        0.0622
     13 C          -3.8669    3.0730   -2.2183 C.2     1  UNL1        0.2438
     14 O          -4.5984    3.7027   -1.4838 O.2     1  UNL1       -0.2731
     15 N          -4.5426    3.2917   -4.6134 N.am    1  UNL1       -0.2963
     16 C          -4.8503    4.4600   -5.2108 C.2     1  UNL1        0.2684
     17 O          -4.2034    5.4582   -4.9626 O.2     1  UNL1       -0.2683
     18 C          -5.9776    4.5271   -6.1703 C.2     1  UNL1        0.1897
     19 N          -6.6712    3.4568   -6.4363 N.2     1  UNL1       -0.0779
     20 O          -7.6328    3.4765   -7.4756 O.2     1  UNL1       -0.3964
     21 C          -8.3182    2.2357   -7.6568 C.3     1  UNL1        0.1072
     22 C          -6.3153    5.8089   -6.8257 C.ar    1  UNL1        0.1067
     23 C          -7.4826    5.9413   -7.5293 C.ar    1  UNL1        0.0067
     24 S          -7.3531    7.6393   -8.0738 S.2     1  UNL1       -0.0604
     25 C          -5.7742    7.9998   -7.3183 C.ar    1  UNL1        0.1562
     26 N          -5.4903    6.8510   -6.7345 N.ar    1  UNL1       -0.2233
     27 N          -5.0443    9.1765   -7.3356 N.pl3   1  UNL1       -0.3375
     28 S          -0.9956    1.7693   -3.6439 S.3     1  UNL1       -0.1310
     29 C          -0.6119    0.4395   -2.4624 C.3     1  UNL1        0.0219
     30 C          -3.2677    1.1082    0.2605 C.2     1  UNL1        0.0860
     31 O          -4.3630    1.6161    0.3980 O.co2   1  UNL1       -0.5433
     32 H           2.5771   -2.0317   -0.6719 H       1  UNL1        0.0342
     33 H           2.8760   -2.1319    1.0800 H       1  UNL1        0.0342
     34 H           2.0351   -3.4589    0.2432 H       1  UNL1        0.0342
     35 H          -0.6933    0.5004    0.7790 H       1  UNL1        0.0746
     36 H          -1.6548   -0.9247    0.3178 H       1  UNL1        0.0746
     37 H          -5.0590    2.4948   -4.8114 H       1  UNL1        0.1499
     38 H          -9.0368    2.3331   -8.4705 H       1  UNL1        0.0687
     39 H          -7.5977    1.4548   -7.8999 H       1  UNL1        0.0687
     40 H          -8.8428    1.9729   -6.7382 H       1  UNL1        0.0687
     41 H          -8.2657    5.2190   -7.7066 H       1  UNL1        0.0716
     42 H          -5.3850    9.9517   -7.8087 H       1  UNL1        0.1442
     43 H          -4.1923    9.2255   -6.8745 H       1  UNL1        0.1442
     44 H           0.4426    0.4986   -2.1927 H       1  UNL1        0.0424
     45 H          -0.8021   -0.5221   -2.9391 H       1  UNL1        0.0424
     46 OXT        -2.6860    0.4703    1.2955 O.co2   1  UNL1       -0.5433
@<TRIPOS>UNITY_ATOM_ATTR
46 1
charge -1
@<TRIPOS>BOND
     1     1     2    1
     2     1    32    1
     3     1    33    1
     4     1    34    1
     5     2     3    2
     6     2     4    1
     7     4     5    1
     8     5     6    1
     9     5    35    1
    10     5    36    1
    11     6    29    1
    12     6     7    2
    13     7     8    1
    14     7    30    1
    15     8    13   am
    16     8     9    1
    17     9    10    1
    18     9    11    1
    19     9    28    1
    20    11    12    1
    21    11    13    1
    22    11    15    1
    23    13    14    2
    24    15    16   am
    25    15    37    1
    26    16    17    2
    27    16    18    1
    28    18    19    2
    29    18    22    1
    30    19    20    1
    31    20    21    1
    32    21    38    1
    33    21    39    1
    34    21    40    1
    35    22    26   ar
    36    22    23   ar
    37    23    24   ar
    38    23    41    1
    39    24    25   ar
    40    25    26   ar
    41    25    27    1
    42    27    42    1
    43    27    43    1
    44    28    29    1
    45    29    44    1
    46    29    45    1
    47    30    31   ar
    48    30    46   ar
