@<TRIPOS>MOLECULE
ZINC03831364
 54 57 0 0 0
SMALL
GASTEIGER

@<TRIPOS>ATOM
      1 C           2.2855    3.1501   -2.9144 C.3     1  UNL1       -0.0562
      2 C           2.9451    2.2540   -1.8626 C.3     1  UNL1        0.0091
      3 C           2.0675    1.0807   -1.5209 C.3     1  UNL1       -0.0178
      4 C           1.1173    1.4072   -0.3535 C.3     1  UNL1        0.0600
      5 H           1.5551    1.0224    0.5727 H       1  UNL1        0.0596
      6 C           0.8905    2.9034   -0.2341 C.3     1  UNL1        0.0007
      7 H           0.5541    3.2914   -1.2092 H       1  UNL1        0.0340
      8 C           2.2005    3.6005    0.1596 C.3     1  UNL1       -0.0311
      9 H           2.4160    3.3846    1.2247 H       1  UNL1        0.0308
     10 C           3.3607    3.0306   -0.5993 C.3     1  UNL1       -0.0292
     11 H           3.9035    2.3354    0.0789 H       1  UNL1        0.0310
     12 C           4.3943    4.0192   -1.1575 C.3     1  UNL1       -0.0463
     13 C           5.1786    3.1605   -2.1885 C.3     1  UNL1       -0.0162
     14 C           4.3362    1.8813   -2.4241 C.3     1  UNL1        0.1315
     15 C           4.2294    1.5800   -3.8923 C.2     1  UNL1        0.1902
     16 O           4.4610    2.4433   -4.7043 O.2     1  UNL1       -0.2919
     17 C           3.8331    0.2004   -4.3515 C.3     1  UNL1        0.1052
     18 O           3.8018    0.1644   -5.7797 O.3     1  UNL1       -0.3874
     19 O           4.8804    0.7780   -1.7088 O.3     1  UNL1       -0.3804
     20 C           2.0672    5.1147    0.0513 C.3     1  UNL1       -0.0458
     21 C           0.9824    5.5883    1.0406 C.3     1  UNL1       -0.0302
     22 C          -0.2767    4.8129    0.6973 C.2     1  UNL1       -0.0559
     23 C          -1.3572    5.4701    0.3076 C.2     1  UNL1       -0.0149
     24 C          -2.5386    4.7244   -0.1640 C.2     1  UNL1        0.1787
     25 O          -3.4274    5.2828   -0.7798 O.2     1  UNL1       -0.2879
     26 C          -2.6087    3.2818    0.1294 C.2     1  UNL1       -0.0180
     27 C          -1.5155    2.6483    0.5414 C.2     1  UNL1       -0.0701
     28 C          -0.1995    3.3066    0.7504 C.3     1  UNL1        0.0131
     29 C           0.2267    2.9180    2.1650 C.3     1  UNL1       -0.0520
     30 O          -0.1220    0.7280   -0.5880 O.3     1  UNL1       -0.3914
     31 H           3.0237    3.8457   -3.3136 H       1  UNL1        0.0236
     32 H           1.8932    2.5332   -3.7229 H       1  UNL1        0.0236
     33 H           1.4702    3.7094   -2.4556 H       1  UNL1        0.0236
     34 H           2.6824    0.2148   -1.2426 H       1  UNL1        0.0297
     35 H           1.4712    0.7945   -2.3976 H       1  UNL1        0.0297
     36 H           3.9205    4.8702   -1.6381 H       1  UNL1        0.0269
     37 H           5.0626    4.3587   -0.3627 H       1  UNL1        0.0269
     38 H           6.1565    2.8970   -1.7890 H       1  UNL1        0.0297
     39 H           5.2907    3.7102   -3.1228 H       1  UNL1        0.0297
     40 H           4.4983   -0.4665   -4.0157 H       1  UNL1        0.0637
     41 H           2.8453   -0.0430   -3.9602 H       1  UNL1        0.0637
     42 H           3.5537   -0.6954   -6.1461 H       1  UNL1        0.2100
     43 H           5.7534    0.5005   -2.0186 H       1  UNL1        0.2108
     44 H           1.7763    5.3917   -0.9586 H       1  UNL1        0.0271
     45 H           3.0137    5.5858    0.3098 H       1  UNL1        0.0271
     46 H           0.8068    6.6561    0.9002 H       1  UNL1        0.0310
     47 H           1.2967    5.3950    2.0603 H       1  UNL1        0.0310
     48 H          -1.3730    6.5508    0.3350 H       1  UNL1        0.0655
     49 H          -3.5387    2.7449    0.0105 H       1  UNL1        0.0653
     50 H          -1.6023    1.5952    0.7688 H       1  UNL1        0.0582
     51 H           1.1545    3.4307    2.4187 H       1  UNL1        0.0241
     52 H          -0.5523    3.2059    2.8711 H       1  UNL1        0.0241
     53 H           0.3818    1.8403    2.2146 H       1  UNL1        0.0241
     54 H          -0.0348   -0.2314   -0.6724 H       1  UNL1        0.2098
@<TRIPOS>BOND
     1     1     2    1
     2     1    31    1
     3     1    32    1
     4     1    33    1
     5     2    10    1
     6     2    14    1
     7     2     3    1
     8     3     4    1
     9     3    34    1
    10     3    35    1
    11     4     5    1
    12     4     6    1
    13     4    30    1
    14     6     7    1
    15     6    28    1
    16     6     8    1
    17     8     9    1
    18     8    10    1
    19     8    20    1
    20    10    11    1
    21    10    12    1
    22    12    13    1
    23    12    36    1
    24    12    37    1
    25    13    14    1
    26    13    38    1
    27    13    39    1
    28    14    15    1
    29    14    19    1
    30    15    16    2
    31    15    17    1
    32    17    18    1
    33    17    40    1
    34    17    41    1
    35    18    42    1
    36    19    43    1
    37    20    21    1
    38    20    44    1
    39    20    45    1
    40    21    22    1
    41    21    46    1
    42    21    47    1
    43    22    28    1
    44    22    23    2
    45    23    24    1
    46    23    48    1
    47    24    25    2
    48    24    26    1
    49    26    27    2
    50    26    49    1
    51    27    28    1
    52    27    50    1
    53    28    29    1
    54    29    51    1
    55    29    52    1
    56    29    53    1
    57    30    54    1
