@<TRIPOS>MOLECULE
ZINC12402836
 58 60 0 0 0
SMALL
GASTEIGER

@<TRIPOS>ATOM
      1 C          -5.1420    2.1100    8.1781 C.3     1  UNL1       -0.0245
      2 C          -5.9280    1.1204    7.3156 C.3     1  UNL1       -0.0347
      3 C          -7.9288    1.4277    8.6441 C.3     1  UNL1       -0.0347
      4 C          -7.9635   -0.0317    9.1021 C.3     1  UNL1       -0.0245
      5 C          -7.5205    2.8459    6.7245 C.3     1  UNL1        0.0031
      6 C          -7.1312    2.8226    5.2451 C.3     1  UNL1        0.1291
      7 O          -8.0380    1.9833    4.5271 O.3     1  UNL1       -0.4867
      8 C          -7.8311    1.8529    3.1906 C.ar    1  UNL1        0.1208
      9 C          -8.6762    1.0519    2.4339 C.ar    1  UNL1       -0.0194
     10 C          -8.4696    0.9170    1.0777 C.ar    1  UNL1       -0.0505
     11 C          -7.4092    1.5870    0.4650 C.ar    1  UNL1       -0.0157
     12 C          -6.5587    2.3870    1.2300 C.ar    1  UNL1       -0.0505
     13 C          -6.7753    2.5214    2.5847 C.ar    1  UNL1       -0.0194
     14 C          -7.1837    1.4446   -0.9901 C.2     1  UNL1        0.0081
     15 C          -8.1054    1.9134   -1.8686 C.2     1  UNL1        0.0563
     16 C          -7.9454    1.6584   -3.3088 C.ar    1  UNL1       -0.0061
     17 C          -8.0882    2.7030   -4.2278 C.ar    1  UNL1       -0.0532
     18 C          -7.9325    2.4568   -5.5755 C.ar    1  UNL1       -0.0612
     19 C          -7.6457    1.1779   -6.0204 C.ar    1  UNL1       -0.0617
     20 C          -7.5076    0.1379   -5.1177 C.ar    1  UNL1       -0.0612
     21 C          -7.6555    0.3689   -3.7664 C.ar    1  UNL1       -0.0532
     22 CL         -9.4733    2.8143   -1.2932 Cl      1  UNL1       -0.0823
     23 C          -5.9530    0.7908   -1.4875 C.ar    1  UNL1       -0.0159
     24 C          -5.7451   -0.5715   -1.2673 C.ar    1  UNL1       -0.0540
     25 C          -4.5929   -1.1738   -1.7288 C.ar    1  UNL1       -0.0612
     26 C          -3.6498   -0.4326   -2.4184 C.ar    1  UNL1       -0.0617
     27 C          -3.8525    0.9172   -2.6449 C.ar    1  UNL1       -0.0612
     28 C          -4.9978    1.5327   -2.1838 C.ar    1  UNL1       -0.0540
     29 H          -4.0878    1.8327    8.1801 H       1  UNL1        0.0281
     30 H          -5.2526    3.1148    7.7705 H       1  UNL1        0.0281
     31 H          -5.5255    2.0874    9.1981 H       1  UNL1        0.0281
     32 H          -5.8285    0.1176    7.7311 H       1  UNL1        0.0812
     33 H          -5.5354    1.1330    6.2989 H       1  UNL1        0.0812
     34 H          -7.3225    2.0116    9.3367 H       1  UNL1        0.0812
     35 H          -8.9431    1.8264    8.6241 H       1  UNL1        0.0812
     36 H          -8.4736   -0.6360    8.3519 H       1  UNL1        0.0281
     37 H          -6.9444   -0.3964    9.2308 H       1  UNL1        0.0281
     38 H          -8.4971   -0.1025   10.0499 H       1  UNL1        0.0281
     39 H          -6.8850    3.5540    7.2563 H       1  UNL1        0.0848
     40 H          -8.5629    3.1493    6.8213 H       1  UNL1        0.0848
     41 H          -6.1179    2.4345    5.1421 H       1  UNL1        0.0751
     42 H          -7.1756    3.8343    4.8417 H       1  UNL1        0.0751
     43 H          -9.4967    0.5342    2.9085 H       1  UNL1        0.0654
     44 H          -9.1276    0.2942    0.4898 H       1  UNL1        0.0625
     45 H          -5.7345    2.9034    0.7604 H       1  UNL1        0.0625
     46 H          -6.1206    3.1440    3.1764 H       1  UNL1        0.0654
     47 H          -8.3161    3.7007   -3.8825 H       1  UNL1        0.0624
     48 H          -8.0388    3.2630   -6.2862 H       1  UNL1        0.0618
     49 H          -7.5294    0.9905   -7.0776 H       1  UNL1        0.0618
     50 H          -7.2837   -0.8572   -5.4726 H       1  UNL1        0.0618
     51 H          -7.5482   -0.4438   -3.0633 H       1  UNL1        0.0624
     52 H          -6.4828   -1.1521   -0.7333 H       1  UNL1        0.0624
     53 H          -4.4288   -2.2270   -1.5552 H       1  UNL1        0.0618
     54 H          -2.7514   -0.9097   -2.7812 H       1  UNL1        0.0618
     55 H          -3.1127    1.4901   -3.1842 H       1  UNL1        0.0618
     56 H          -5.1550    2.5863   -2.3615 H       1  UNL1        0.0624
     57 N          -7.3597    1.4861    7.2813 N.4     1  UNL1        0.2372
     58 H          -7.8600    0.8190    6.6821 H       1  UNL1        0.2034
@<TRIPOS>UNITY_ATOM_ATTR
57 1
charge 1
@<TRIPOS>BOND
     1     1     2    1
     2     1    29    1
     3     1    30    1
     4     1    31    1
     5     2    32    1
     6     2    33    1
     7     2    57    1
     8     3     4    1
     9     3    34    1
    10     3    35    1
    11     3    57    1
    12     4    36    1
    13     4    37    1
    14     4    38    1
    15     5     6    1
    16     5    39    1
    17     5    40    1
    18     5    57    1
    19     6     7    1
    20     6    41    1
    21     6    42    1
    22     7     8    1
    23     8    13   ar
    24     8     9   ar
    25     9    10   ar
    26     9    43    1
    27    10    11   ar
    28    10    44    1
    29    11    12   ar
    30    11    14    1
    31    12    13   ar
    32    12    45    1
    33    13    46    1
    34    14    15    2
    35    14    23    1
    36    15    16    1
    37    15    22    1
    38    16    21   ar
    39    16    17   ar
    40    17    18   ar
    41    17    47    1
    42    18    19   ar
    43    18    48    1
    44    19    20   ar
    45    19    49    1
    46    20    21   ar
    47    20    50    1
    48    21    51    1
    49    23    28   ar
    50    23    24   ar
    51    24    25   ar
    52    24    52    1
    53    25    26   ar
    54    25    53    1
    55    26    27   ar
    56    26    54    1
    57    27    28   ar
    58    27    55    1
    59    28    56    1
    60    57    58    1
