@<TRIPOS>MOLECULE
ZINC00061044
 26 27 0 0 0
SMALL
GASTEIGER

@<TRIPOS>ATOM
      1 C           2.4303   -0.4148   -0.8729 C.3     1  UNL1       -0.0226
      2 C           1.0692   -0.8423   -0.3873 C.ar    1  UNL1        0.0381
      3 C           0.7701   -2.0312    0.1741 C.ar    1  UNL1        0.0252
      4 C          -0.6091   -2.0343    0.4875 C.ar    1  UNL1        0.2720
      5 O          -1.2267   -2.9469    1.0062 O.2     1  UNL1       -0.2658
      6 N          -1.1156   -0.8418    0.1127 N.ar    1  UNL1       -0.2172
      7 N          -0.0704   -0.0910   -0.4415 N.ar    1  UNL1       -0.2841
      8 C          -0.1796    1.2671   -0.9800 C.3     1  UNL1        0.0291
      9 C          -2.4452   -0.4302    0.2495 C.ar    1  UNL1        0.0673
     10 C          -2.7362    0.8115    0.7995 C.ar    1  UNL1       -0.0362
     11 C          -4.0501    1.2170    0.9287 C.ar    1  UNL1       -0.0598
     12 C          -5.0757    0.3838    0.5210 C.ar    1  UNL1       -0.0616
     13 C          -4.7895   -0.8553   -0.0222 C.ar    1  UNL1       -0.0598
     14 C          -3.4776   -1.2646   -0.1591 C.ar    1  UNL1       -0.0362
     15 H           2.9686    0.0741   -0.0610 H       1  UNL1        0.0292
     16 H           2.9892   -1.2899   -1.2043 H       1  UNL1        0.0292
     17 H           2.3174    0.2807   -1.7046 H       1  UNL1        0.0292
     18 H           1.4630   -2.8400    0.3536 H       1  UNL1        0.0690
     19 H           0.7933    1.5905   -1.3500 H       1  UNL1        0.0472
     20 H          -0.9008    1.2770   -1.7972 H       1  UNL1        0.0472
     21 H          -0.5126    1.9442   -0.1933 H       1  UNL1        0.0472
     22 H          -1.9358    1.4610    1.1219 H       1  UNL1        0.0639
     23 H          -4.2769    2.1841    1.3525 H       1  UNL1        0.0618
     24 H          -6.1024    0.7017    0.6266 H       1  UNL1        0.0618
     25 H          -5.5927   -1.5035   -0.3400 H       1  UNL1        0.0618
     26 H          -3.2547   -2.2323   -0.5837 H       1  UNL1        0.0639
@<TRIPOS>BOND
     1     1     2    1
     2     1    15    1
     3     1    16    1
     4     1    17    1
     5     2     7   ar
     6     2     3   ar
     7     3     4   ar
     8     3    18    1
     9     4     5    2
    10     4     6   ar
    11     6     7   ar
    12     6     9    1
    13     7     8    1
    14     8    19    1
    15     8    20    1
    16     8    21    1
    17     9    14   ar
    18     9    10   ar
    19    10    11   ar
    20    10    22    1
    21    11    12   ar
    22    11    23    1
    23    12    13   ar
    24    12    24    1
    25    13    14   ar
    26    13    25    1
    27    14    26    1
