@<TRIPOS>MOLECULE
ZINC00968297
 34 34 0 0 0
SMALL
GASTEIGER

@<TRIPOS>ATOM
      1 C          -3.2583    5.2629    3.7106 C.3     1  UNL1       -0.0653
      2 C          -3.3661    3.7372    3.7476 C.3     1  UNL1       -0.0556
      3 C          -2.7644    3.1523    2.4683 C.3     1  UNL1       -0.0493
      4 C          -2.8721    1.6265    2.5053 C.3     1  UNL1       -0.0214
      5 H          -2.4055    1.2513    3.4161 H       1  UNL1        0.0313
      6 C          -4.3466    1.2187    2.4823 C.3     1  UNL1       -0.0610
      7 C          -2.1604    1.0353    1.2868 C.3     1  UNL1        0.1274
      8 C          -2.8733    1.5248    0.0396 C.2     1  UNL1        0.2357
      9 O          -2.9857    2.7076   -0.2014 O.2     1  UNL1       -0.2742
     10 N          -3.3777    0.5853   -0.7906 N.am    1  UNL1       -0.2412
     11 C          -3.2516   -0.7412   -0.5204 C.2     1  UNL1        0.2779
     12 N          -2.6506   -1.2373    0.5336 N.am    1  UNL1       -0.1307
     13 C          -2.0896   -0.4687    1.4700 C.2     1  UNL1        0.2555
     14 O          -1.5393   -0.9578    2.4364 O.2     1  UNL1       -0.2724
     15 O          -3.7828   -1.6090   -1.4003 O.2     1  UNL1       -0.4829
     16 C          -0.7309    1.5802    1.2632 C.3     1  UNL1       -0.0331
     17 C          -0.0119    1.0719    0.0120 C.3     1  UNL1       -0.0639
     18 H          -2.2098    5.5515    3.6374 H       1  UNL1        0.0230
     19 H          -3.8015    5.6447    2.8461 H       1  UNL1        0.0230
     20 H          -3.6870    5.6797    4.6221 H       1  UNL1        0.0230
     21 H          -4.4147    3.4487    3.8209 H       1  UNL1        0.0263
     22 H          -2.8230    3.3554    4.6121 H       1  UNL1        0.0263
     23 H          -1.7158    3.4408    2.3950 H       1  UNL1        0.0268
     24 H          -3.3075    3.5340    1.6038 H       1  UNL1        0.0268
     25 H          -4.4259    0.1365    2.5858 H       1  UNL1        0.0233
     26 H          -4.8701    1.7018    3.3073 H       1  UNL1        0.0233
     27 H          -4.7942    1.5271    1.5376 H       1  UNL1        0.0233
     28 H          -3.8395    0.8633   -1.5970 H       1  UNL1        0.1590
     29 H          -3.6884   -2.5503   -1.2000 H       1  UNL1        0.2949
     30 H          -0.1981    1.2409    2.1515 H       1  UNL1        0.0277
     31 H          -0.7576    2.6697    1.2496 H       1  UNL1        0.0277
     32 H           0.0148   -0.0177    0.0256 H       1  UNL1        0.0230
     33 H           1.0065    1.4601   -0.0048 H       1  UNL1        0.0230
     34 H          -0.5447    1.4112   -0.8763 H       1  UNL1        0.0230
@<TRIPOS>BOND
     1     1     2    1
     2     1    18    1
     3     1    19    1
     4     1    20    1
     5     2     3    1
     6     2    21    1
     7     2    22    1
     8     3     4    1
     9     3    23    1
    10     3    24    1
    11     4     5    1
    12     4     6    1
    13     4     7    1
    14     6    25    1
    15     6    26    1
    16     6    27    1
    17     7    13    1
    18     7     8    1
    19     7    16    1
    20     8     9    2
    21     8    10   am
    22    10    11    1
    23    10    28    1
    24    11    12    2
    25    11    15    1
    26    12    13    1
    27    13    14    2
    28    15    29    1
    29    16    17    1
    30    16    30    1
    31    16    31    1
    32    17    32    1
    33    17    33    1
    34    17    34    1
