@<TRIPOS>MOLECULE
ZINC06409735
 18 19 0 0 0
SMALL
GASTEIGER

@<TRIPOS>ATOM
      1 C           4.7734    0.0984   -0.0448 C.ar    1  UNL1       -0.0430
      2 C           3.6323   -0.6530   -0.0368 C.ar    1  UNL1       -0.0496
      3 C           2.3957    0.0179   -0.0208 C.ar    1  UNL1        0.0223
      4 C           1.1804   -0.6882   -0.0130 C.ar    1  UNL1        0.0513
      5 C           0.0021   -0.0041    0.0020 C.ar    1  UNL1       -0.0260
      6 C          -0.0168    1.3887    0.0097 C.ar    1  UNL1        0.0583
      7 C           1.1442    2.1084    0.0025 C.ar    1  UNL1        0.1558
      8 C           2.3830    1.4346   -0.0131 C.ar    1  UNL1        0.1146
      9 N           3.5355    2.1102   -0.0215 N.ar    1  UNL1       -0.2512
     10 C           4.6899    1.4887   -0.0369 C.ar    1  UNL1        0.0284
     11 O           1.1057    3.4667    0.0097 O.3     1  UNL1       -0.5036
     12 I          -1.8541    2.3952    0.0238 I       1  UNL1       -0.0399
     13 CL          1.1806   -2.4242   -0.0228 Cl      1  UNL1       -0.0828
     14 H           5.7390   -0.3851   -0.0571 H       1  UNL1        0.0633
     15 H           3.6783   -1.7320   -0.0427 H       1  UNL1        0.0625
     16 H          -0.9302   -0.5493    0.0084 H       1  UNL1        0.0644
     17 H           5.6000    2.0701   -0.0433 H       1  UNL1        0.0830
     18 H           1.1028    3.8554    0.8952 H       1  UNL1        0.2923
@<TRIPOS>BOND
     1     1    10   ar
     2     1     2   ar
     3     1    14    1
     4     2     3   ar
     5     2    15    1
     6     3     8   ar
     7     3     4   ar
     8     4     5   ar
     9     4    13    1
    10     5     6   ar
    11     5    16    1
    12     6     7   ar
    13     6    12    1
    14     7     8   ar
    15     7    11    1
    16     8     9   ar
    17     9    10   ar
    18    10    17    1
    19    11    18    1
