@<TRIPOS>MOLECULE
ZINC00002086
 25 26 0 0 0
SMALL
GASTEIGER

@<TRIPOS>ATOM
      1 C           0.2108    1.2723    0.4596 C.3     1  UNL1       -0.0380
      2 C           0.0408   -0.2313    0.2337 C.3     1  UNL1        0.1079
      3 C          -1.4348   -0.5974   -0.1094 C.3     1  UNL1        0.0916
      4 H          -1.5857   -1.6665    0.0400 H       1  UNL1        0.0584
      5 N          -1.7279   -0.2582   -1.5014 N.am    1  UNL1       -0.2686
      6 C          -0.6151   -0.4423   -2.4512 C.3     1  UNL1        0.1534
      7 H          -0.7751   -1.1728   -3.2442 H       1  UNL1        0.0750
      8 S           0.8266   -0.7759   -1.3492 S.O2    1  UNL1       -0.0044
      9 O           1.8871    0.1109   -1.6779 O.2     1  UNL1       -0.1720
     10 O           1.0665   -2.1756   -1.2986 O.2     1  UNL1       -0.1720
     11 C          -0.7164    1.0233   -2.8711 C.3     1  UNL1        0.0629
     12 C          -1.8426    1.0307   -1.8727 C.2     1  UNL1        0.2210
     13 O          -2.6022    1.9078   -1.5195 O.2     1  UNL1       -0.2754
     14 C          -2.3630    0.1690    0.7972 C.2     1  UNL1        0.0643
     15 O          -3.2653    0.8206    0.3269 O.co2   1  UNL1       -0.5478
     16 C           0.5588   -1.0371    1.4268 C.3     1  UNL1       -0.0380
     17 H           1.2659    1.4999    0.6117 H       1  UNL1        0.0251
     18 H          -0.1558    1.8144   -0.4121 H       1  UNL1        0.0251
     19 H          -0.3565    1.5739    1.3401 H       1  UNL1        0.0251
     20 H           0.1411    1.6327   -2.5859 H       1  UNL1        0.0393
     21 H          -1.0305    1.1741   -3.9039 H       1  UNL1        0.0393
     22 H          -0.0040   -0.7660    2.3201 H       1  UNL1        0.0251
     23 H           0.4342   -2.1015    1.2280 H       1  UNL1        0.0251
     24 H           1.6151   -0.8176    1.5823 H       1  UNL1        0.0251
     25 O          -2.1875    0.1278    2.1273 O.co2   1  UNL1       -0.5478
@<TRIPOS>UNITY_ATOM_ATTR
25 1
charge -1
@<TRIPOS>BOND
     1     1     2    1
     2     1    17    1
     3     1    18    1
     4     1    19    1
     5     2     8    1
     6     2     3    1
     7     2    16    1
     8     3     4    1
     9     3     5    1
    10     3    14    1
    11     5    12   am
    12     5     6    1
    13     6     7    1
    14     6     8    1
    15     6    11    1
    16     8     9    2
    17     8    10    2
    18    11    12    1
    19    11    20    1
    20    11    21    1
    21    12    13    2
    22    14    15   ar
    23    14    25   ar
    24    16    22    1
    25    16    23    1
    26    16    24    1
