@<TRIPOS>MOLECULE
ZINC03830359
 74 76 0 0 0
SMALL
GASTEIGER

@<TRIPOS>ATOM
      1 C          -1.0335    6.1335    4.2821 C.3     1  UNL1       -0.0621
      2 C          -0.3164    5.2147    3.2909 C.3     1  UNL1       -0.0405
      3 H           0.3696    5.8028    2.6813 H       1  UNL1        0.0301
      4 C           0.4689    4.1497    4.0590 C.3     1  UNL1       -0.0501
      5 C           1.5815    4.8203    4.8672 C.3     1  UNL1       -0.0502
      6 C           2.3668    3.7553    5.6353 C.3     1  UNL1       -0.0245
      7 C           3.4795    4.4259    6.4435 C.3     1  UNL1        0.0605
      8 C           2.8644    5.4183    7.4324 C.3     1  UNL1       -0.0363
      9 C           4.2647    3.3609    7.2116 C.3     1  UNL1       -0.0363
     10 O           4.3597    5.1201    5.5573 O.3     1  UNL1       -0.3891
     11 C          -1.3474    4.5355    2.3873 C.3     1  UNL1       -0.0325
     12 H          -2.0337    3.9335    2.9829 H       1  UNL1        0.0309
     13 C          -2.1308    5.5966    1.5712 C.3     1  UNL1       -0.0489
     14 C          -1.9296    5.2316    0.0732 C.3     1  UNL1       -0.0457
     15 C          -1.6160    3.7348    0.1293 C.3     1  UNL1       -0.0139
     16 H          -2.5225    3.1571    0.3100 H       1  UNL1        0.0351
     17 C          -0.6509    3.6723    1.3469 C.3     1  UNL1       -0.0225
     18 C          -0.4147    2.2145    1.6660 C.3     1  UNL1       -0.0465
     19 C           0.3961    1.6114    0.5066 C.3     1  UNL1       -0.0488
     20 C          -0.3392    1.7426   -0.8258 C.3     1  UNL1       -0.0312
     21 C          -0.8451    3.1643   -1.0239 C.2     1  UNL1       -0.0659
     22 C          -0.6189    3.8534   -2.1422 C.2     1  UNL1       -0.0620
     23 C          -1.4578    5.0075   -2.4737 C.2     1  UNL1       -0.0582
     24 C          -1.1540    5.7787   -3.5380 C.2     1  UNL1       -0.0399
     25 C           0.0464    5.4846   -4.4155 C.3     1  UNL1       -0.0011
     26 C          -0.3946    5.5677   -5.8804 C.3     1  UNL1        0.0619
     27 H          -1.1499    4.8063   -6.0751 H       1  UNL1        0.0597
     28 C          -0.9811    6.9505   -6.1673 C.3     1  UNL1        0.0037
     29 C          -2.2806    7.1372   -5.3777 C.3     1  UNL1        0.0822
     30 H          -3.0142    6.3972   -5.6975 H       1  UNL1        0.0644
     31 C          -1.9789    6.9476   -3.9084 C.2     1  UNL1       -0.0229
     32 C          -2.4355    7.7995   -2.9906 C.2     1  UNL1       -0.0928
     33 O          -2.7946    8.4519   -5.6005 O.3     1  UNL1       -0.3871
     34 O           0.7333    5.3461   -6.7293 O.3     1  UNL1       -0.3914
     35 C           0.6826    4.3182    0.9654 C.3     1  UNL1       -0.0588
     36 H          -0.2990    6.6174    4.9258 H       1  UNL1        0.0233
     37 H          -1.5929    6.8923    3.7348 H       1  UNL1        0.0233
     38 H          -1.7195    5.5454    4.8917 H       1  UNL1        0.0233
     39 H          -0.2026    3.6202    4.7350 H       1  UNL1        0.0268
     40 H           0.9070    3.4427    3.3546 H       1  UNL1        0.0268
     41 H           2.2530    5.3498    4.1913 H       1  UNL1        0.0266
     42 H           1.1434    5.5273    5.5717 H       1  UNL1        0.0266
     43 H           1.6954    3.2258    6.3113 H       1  UNL1        0.0293
     44 H           2.8050    3.0483    4.9309 H       1  UNL1        0.0293
     45 H           2.1930    4.8888    8.1083 H       1  UNL1        0.0257
     46 H           3.6571    5.8961    8.0081 H       1  UNL1        0.0257
     47 H           2.3050    6.1770    6.8851 H       1  UNL1        0.0257
     48 H           4.7029    2.6539    6.5072 H       1  UNL1        0.0257
     49 H           5.0574    3.8387    7.7874 H       1  UNL1        0.0257
     50 H           3.5933    2.8314    7.8876 H       1  UNL1        0.0257
     51 H           4.7863    4.5517    4.9015 H       1  UNL1        0.2101
     52 H          -1.7325    6.5914    1.7708 H       1  UNL1        0.0268
     53 H          -3.1898    5.5597    1.8265 H       1  UNL1        0.0268
     54 H          -1.0922    5.7861   -0.3503 H       1  UNL1        0.0271
     55 H          -2.8419    5.4141   -0.4947 H       1  UNL1        0.0271
     56 H          -1.3688    1.6958    1.7594 H       1  UNL1        0.0271
     57 H           0.1477    2.1268    2.5956 H       1  UNL1        0.0271
     58 H           0.5762    0.5559    0.7105 H       1  UNL1        0.0268
     59 H           1.3534    2.1277    0.4363 H       1  UNL1        0.0268
     60 H           0.3415    1.4873   -1.6380 H       1  UNL1        0.0310
     61 H          -1.1852    1.0555   -0.8380 H       1  UNL1        0.0310
     62 H           0.1829    3.5608   -2.8040 H       1  UNL1        0.0617
     63 H          -2.3195    5.2410   -1.8660 H       1  UNL1        0.0620
     64 H           0.8290    6.2192   -4.2254 H       1  UNL1        0.0338
     65 H           0.4215    4.4839   -4.2012 H       1  UNL1        0.0338
     66 H          -0.2642    7.7165   -5.8716 H       1  UNL1        0.0318
     67 H          -1.1885    7.0420   -7.2334 H       1  UNL1        0.0318
     68 H          -2.2046    7.6439   -1.9471 H       1  UNL1        0.0538
     69 H          -3.0364    8.6454   -3.2904 H       1  UNL1        0.0538
     70 H          -3.6182    8.6373   -5.1290 H       1  UNL1        0.2102
     71 H           1.1550    4.4846   -6.6062 H       1  UNL1        0.2098
     72 H           0.5347    5.3849    0.7974 H       1  UNL1        0.0235
     73 H           1.4005    4.1736    1.7728 H       1  UNL1        0.0235
     74 H           1.0626    3.8561    0.0542 H       1  UNL1        0.0235
@<TRIPOS>BOND
     1     1     2    1
     2     1    36    1
     3     1    37    1
     4     1    38    1
     5     2     3    1
     6     2     4    1
     7     2    11    1
     8     4     5    1
     9     4    39    1
    10     4    40    1
    11     5     6    1
    12     5    41    1
    13     5    42    1
    14     6     7    1
    15     6    43    1
    16     6    44    1
    17     7     8    1
    18     7     9    1
    19     7    10    1
    20     8    45    1
    21     8    46    1
    22     8    47    1
    23     9    48    1
    24     9    49    1
    25     9    50    1
    26    10    51    1
    27    11    12    1
    28    11    17    1
    29    11    13    1
    30    13    14    1
    31    13    52    1
    32    13    53    1
    33    14    15    1
    34    14    54    1
    35    14    55    1
    36    15    16    1
    37    15    21    1
    38    15    17    1
    39    17    18    1
    40    17    35    1
    41    18    19    1
    42    18    56    1
    43    18    57    1
    44    19    20    1
    45    19    58    1
    46    19    59    1
    47    20    21    1
    48    20    60    1
    49    20    61    1
    50    21    22    2
    51    22    23    1
    52    22    62    1
    53    23    24    2
    54    23    63    1
    55    24    31    1
    56    24    25    1
    57    25    26    1
    58    25    64    1
    59    25    65    1
    60    26    27    1
    61    26    28    1
    62    26    34    1
    63    28    29    1
    64    28    66    1
    65    28    67    1
    66    29    30    1
    67    29    31    1
    68    29    33    1
    69    31    32    2
    70    32    68    1
    71    32    69    1
    72    33    70    1
    73    34    71    1
    74    35    72    1
    75    35    73    1
    76    35    74    1
