@<TRIPOS>MOLECULE
ZINC00057319
 44 45 0 0 0
SMALL
GASTEIGER

@<TRIPOS>ATOM
      1 C           0.8250   -0.4964   -1.1902 C.3     1  UNL1       -0.0213
      2 C           0.0021   -0.0041    0.0020 C.3     1  UNL1       -0.0214
      3 H           0.4501   -0.3665    0.9272 H       1  UNL1        0.0851
      4 C          -0.0187    1.5258    0.0104 C.3     1  UNL1        0.0152
      5 C          -0.7240    2.0118    1.2503 C.ar    1  UNL1       -0.0418
      6 C          -2.0894    2.2288    1.2273 C.ar    1  UNL1       -0.0549
      7 C          -2.7392    2.6689    2.3642 C.ar    1  UNL1       -0.0199
      8 C          -2.0189    2.9039    3.5264 C.ar    1  UNL1        0.1169
      9 C          -0.6482    2.6908    3.5452 C.ar    1  UNL1       -0.0199
     10 C          -0.0039    2.2452    2.4073 C.ar    1  UNL1       -0.0549
     11 O          -2.6551    3.3418    4.6446 O.3     1  UNL1       -0.5068
     12 C          -1.4805   -1.8639    0.4557 C.3     1  UNL1       -0.0025
     13 C          -2.9225   -2.3577    0.3229 C.3     1  UNL1        0.1199
     14 H          -3.2035   -2.3796   -0.7300 H       1  UNL1        0.0698
     15 C          -3.0338   -3.7447    0.9015 C.ar    1  UNL1       -0.0072
     16 C          -3.2353   -3.9119    2.2583 C.ar    1  UNL1       -0.0141
     17 C          -3.3438   -5.1880    2.7927 C.ar    1  UNL1        0.1207
     18 C          -3.2380   -6.2958    1.9659 C.ar    1  UNL1        0.0213
     19 C          -3.0301   -6.1255    0.6058 C.ar    1  UNL1        0.1207
     20 C          -2.9284   -4.8472    0.0753 C.ar    1  UNL1       -0.0141
     21 O          -2.9264   -7.2095   -0.2072 O.3     1  UNL1       -0.5066
     22 O          -3.5481   -5.3518    4.1262 O.3     1  UNL1       -0.5066
     23 O          -3.7954   -1.4749    1.0306 O.3     1  UNL1       -0.3819
     24 H           0.3769   -0.1340   -2.1154 H       1  UNL1        0.0284
     25 H           1.8445   -0.1197   -1.1083 H       1  UNL1        0.0284
     26 H           0.8398   -1.5863   -1.1962 H       1  UNL1        0.0284
     27 H           1.0039    1.9031    0.0027 H       1  UNL1        0.0368
     28 H          -0.5459    1.8868   -0.8726 H       1  UNL1        0.0368
     29 H          -2.6489    2.0499    0.3211 H       1  UNL1        0.0621
     30 H          -3.8063    2.8341    2.3470 H       1  UNL1        0.0654
     31 H          -0.0853    2.8727    4.4488 H       1  UNL1        0.0654
     32 H           1.0631    2.0788    2.4216 H       1  UNL1        0.0621
     33 H          -2.7057    4.3047    4.7168 H       1  UNL1        0.2921
     34 H          -0.8146   -2.5372   -0.0840 H       1  UNL1        0.0843
     35 H          -1.1995   -1.8419    1.5087 H       1  UNL1        0.0843
     36 H          -3.3129   -3.0487    2.9026 H       1  UNL1        0.0658
     37 H          -3.3171   -7.2898    2.3807 H       1  UNL1        0.0691
     38 H          -2.7665   -4.7140   -0.9841 H       1  UNL1        0.0658
     39 H          -2.0230   -7.5382   -0.3112 H       1  UNL1        0.2921
     40 H          -2.7338   -5.4142    4.6441 H       1  UNL1        0.2921
     41 H          -3.6033   -1.4060    1.9758 H       1  UNL1        0.2105
     42 N          -1.3801   -0.5064   -0.1126 N.4     1  UNL1        0.2313
     43 H          -1.6498   -0.5330   -1.1030 H       1  UNL1        0.2017
     44 H          -2.0122    0.1219    0.3973 H       1  UNL1        0.2017
@<TRIPOS>UNITY_ATOM_ATTR
42 1
charge 1
@<TRIPOS>BOND
     1     1     2    1
     2     1    24    1
     3     1    25    1
     4     1    26    1
     5     2     3    1
     6     2     4    1
     7     2    42    1
     8     4     5    1
     9     4    27    1
    10     4    28    1
    11     5    10   ar
    12     5     6   ar
    13     6     7   ar
    14     6    29    1
    15     7     8   ar
    16     7    30    1
    17     8     9   ar
    18     8    11    1
    19     9    10   ar
    20     9    31    1
    21    10    32    1
    22    11    33    1
    23    12    13    1
    24    12    34    1
    25    12    35    1
    26    12    42    1
    27    13    14    1
    28    13    15    1
    29    13    23    1
    30    15    20   ar
    31    15    16   ar
    32    16    17   ar
    33    16    36    1
    34    17    18   ar
    35    17    22    1
    36    18    19   ar
    37    18    37    1
    38    19    20   ar
    39    19    21    1
    40    20    38    1
    41    21    39    1
    42    22    40    1
    43    23    41    1
    44    42    43    1
    45    42    44    1
