@<TRIPOS>MOLECULE
ZINC03830642
 49 52 0 0 0
SMALL
GASTEIGER

@<TRIPOS>ATOM
      1 C           2.0219    1.6596   -1.4190 C.3     1  UNL1       -0.0526
      2 C           1.4864    1.8748   -0.0021 C.3     1  UNL1        0.0293
      3 C           1.7899    3.2970    0.4111 C.3     1  UNL1       -0.0404
      4 C           1.1549    3.6278    1.7612 C.3     1  UNL1       -0.0483
      5 C          -0.3627    3.4426    1.6421 C.3     1  UNL1       -0.0285
      6 H          -0.7360    4.0527    0.8196 H       1  UNL1        0.0312
      7 C          -0.6542    1.9777    1.3344 C.3     1  UNL1       -0.0303
      8 H          -1.7325    1.8279    1.2814 H       1  UNL1        0.0310
      9 C          -0.0191    1.5539    0.0106 C.3     1  UNL1       -0.0252
     10 H          -0.5372    1.9676   -0.8546 H       1  UNL1        0.0313
     11 C           0.0021   -0.0041    0.0020 C.3     1  UNL1       -0.0424
     12 C           1.1945   -0.3522    0.9197 C.3     1  UNL1        0.0067
     13 C           2.1169    0.8535    0.9139 C.2     1  UNL1        0.1395
     14 O           3.1530    0.9723    1.5227 O.2     1  UNL1       -0.2968
     15 C          -0.0899    1.1224    2.4750 C.3     1  UNL1       -0.0311
     16 C          -0.7482    1.5574    3.7565 C.2     1  UNL1       -0.0839
     17 C          -1.1725    2.7734    3.9398 C.2     1  UNL1       -0.0648
     18 C          -1.0341    3.8752    2.9309 C.3     1  UNL1       -0.0078
     19 C          -2.4119    4.4804    2.6550 C.3     1  UNL1       -0.0413
     20 C          -3.0329    4.9343    3.9788 C.3     1  UNL1       -0.0258
     21 C          -3.2362    3.7314    4.9003 C.3     1  UNL1        0.0590
     22 H          -3.8595    2.9914    4.3982 H       1  UNL1        0.0596
     23 C          -1.8797    3.1065    5.2436 C.3     1  UNL1       -0.0051
     24 O          -3.8811    4.1572    6.1023 O.3     1  UNL1       -0.3915
     25 C          -0.1669    4.9624    3.5687 C.3     1  UNL1       -0.0556
     26 H           1.4969    2.3192   -2.1099 H       1  UNL1        0.0239
     27 H           3.0884    1.8836   -1.4423 H       1  UNL1        0.0239
     28 H           1.8619    0.6226   -1.7143 H       1  UNL1        0.0239
     29 H           2.8700    3.4253    0.4833 H       1  UNL1        0.0275
     30 H           1.3998    3.9794   -0.3440 H       1  UNL1        0.0275
     31 H           1.5471    2.9563    2.5250 H       1  UNL1        0.0269
     32 H           1.3780    4.6609    2.0278 H       1  UNL1        0.0269
     33 H          -0.9263   -0.4029    0.4109 H       1  UNL1        0.0272
     34 H           0.1714   -0.3802   -1.0069 H       1  UNL1        0.0272
     35 H           0.8600   -0.5450    1.8422 H       1  UNL1        0.0342
     36 H           1.7195   -1.2260    0.5338 H       1  UNL1        0.0342
     37 H           0.9878    1.2691    2.5468 H       1  UNL1        0.0310
     38 H          -0.3071    0.0707    2.2884 H       1  UNL1        0.0310
     39 H          -0.8721    0.8360    4.5506 H       1  UNL1        0.0572
     40 H          -2.3072    5.3368    1.9889 H       1  UNL1        0.0274
     41 H          -3.0526    3.7313    2.1897 H       1  UNL1        0.0274
     42 H          -2.3701    5.6522    4.4619 H       1  UNL1        0.0290
     43 H          -3.9962    5.4056    3.7838 H       1  UNL1        0.0290
     44 H          -1.2819    3.8155    5.8163 H       1  UNL1        0.0335
     45 H          -2.0297    2.1969    5.8251 H       1  UNL1        0.0335
     46 H          -4.0426    3.4446    6.7357 H       1  UNL1        0.2098
     47 H          -0.0818    5.8070    2.8849 H       1  UNL1        0.0238
     48 H          -0.6263    5.2938    4.5000 H       1  UNL1        0.0238
     49 H           0.8251    4.5611    3.7756 H       1  UNL1        0.0238
@<TRIPOS>BOND
     1     1     2    1
     2     1    26    1
     3     1    27    1
     4     1    28    1
     5     2     9    1
     6     2    13    1
     7     2     3    1
     8     3     4    1
     9     3    29    1
    10     3    30    1
    11     4     5    1
    12     4    31    1
    13     4    32    1
    14     5     6    1
    15     5    18    1
    16     5     7    1
    17     7     8    1
    18     7     9    1
    19     7    15    1
    20     9    10    1
    21     9    11    1
    22    11    12    1
    23    11    33    1
    24    11    34    1
    25    12    13    1
    26    12    35    1
    27    12    36    1
    28    13    14    2
    29    15    16    1
    30    15    37    1
    31    15    38    1
    32    16    17    2
    33    16    39    1
    34    17    23    1
    35    17    18    1
    36    18    19    1
    37    18    25    1
    38    19    20    1
    39    19    40    1
    40    19    41    1
    41    20    21    1
    42    20    42    1
    43    20    43    1
    44    21    22    1
    45    21    23    1
    46    21    24    1
    47    23    44    1
    48    23    45    1
    49    24    46    1
    50    25    47    1
    51    25    48    1
    52    25    49    1
