@<TRIPOS>MOLECULE
ZINC11616268
 62 65 0 0 0
SMALL
GASTEIGER

@<TRIPOS>ATOM
      1 C           5.0488    2.4401   -0.4510 C.3     1  UNL1       -0.0594
      2 C           3.7181    3.1816   -0.3295 C.3     1  UNL1       -0.0071
      3 H           3.8402    4.2240   -0.6246 H       1  UNL1        0.0330
      4 C           2.6405    2.5004   -1.2162 C.3     1  UNL1       -0.0436
      5 C           1.7992    1.7220   -0.1924 C.3     1  UNL1       -0.0263
      6 H           2.4268    0.8601    0.1388 H       1  UNL1        0.0311
      7 C           0.4956    1.1618   -0.6389 C.3     1  UNL1        0.0003
      8 H           0.6346    0.0674   -0.7860 H       1  UNL1        0.0336
      9 C          -0.0352    1.7144   -1.9624 C.3     1  UNL1       -0.0432
     10 C          -1.0703    0.7152   -2.4849 C.3     1  UNL1       -0.0301
     11 C          -1.7592   -0.0287   -1.3658 C.2     1  UNL1       -0.0532
     12 C          -2.3810   -1.1679   -1.7160 C.2     1  UNL1       -0.0148
     13 C          -3.0370   -1.9940   -0.6827 C.2     1  UNL1        0.1787
     14 O          -3.8414   -2.8706   -0.9951 O.2     1  UNL1       -0.2879
     15 C          -2.7125   -1.7342    0.7360 C.2     1  UNL1       -0.0180
     16 C          -2.1017   -0.5902    1.0709 C.2     1  UNL1       -0.0674
     17 C          -1.7751    0.4378    0.0464 C.3     1  UNL1        0.0443
     18 C          -0.6060    1.3343    0.4025 C.3     1  UNL1        0.1526
     19 C          -0.0898    1.1639    1.8117 C.3     1  UNL1        0.0910
     20 H          -0.9182    1.2929    2.5221 H       1  UNL1        0.0626
     21 C           1.0246    2.1571    2.1694 C.3     1  UNL1       -0.0151
     22 C           1.7071    2.7291    0.9673 C.3     1  UNL1        0.0096
     23 C           3.1967    3.1067    1.1310 C.3     1  UNL1        0.1351
     24 C           3.9650    2.0788    1.9037 C.2     1  UNL1        0.2024
     25 O           3.5976    0.9285    1.9093 O.2     1  UNL1       -0.2907
     26 C           5.1963    2.4804    2.6742 C.3     1  UNL1        0.1530
     27 O           5.7567    1.3141    3.3330 O.3     1  UNL1       -0.4570
     28 C           6.8652    1.5023    4.0663 C.2     1  UNL1        0.3043
     29 O           7.3511    2.6050    4.1546 O.2     1  UNL1       -0.2512
     30 C           7.5037    0.3382    4.7792 C.3     1  UNL1        0.0332
     31 O           3.2927    4.3879    1.7524 O.3     1  UNL1       -0.3801
     32 C           1.0213    4.0372    0.5355 C.3     1  UNL1       -0.0562
     33 O           0.4244   -0.1682    1.9798 O.3     1  UNL1       -0.3886
     34 F          -1.1462    2.6210    0.2770 F       1  UNL1       -0.2377
     35 C          -2.9731    1.4065    0.0960 C.3     1  UNL1       -0.0493
     36 H           5.3927    2.4778   -1.4846 H       1  UNL1        0.0233
     37 H           5.7884    2.9127    0.1954 H       1  UNL1        0.0233
     38 H           4.9145    1.4010   -0.1504 H       1  UNL1        0.0233
     39 H           3.1121    1.8076   -1.9193 H       1  UNL1        0.0272
     40 H           2.0478    3.2312   -1.7566 H       1  UNL1        0.0272
     41 H          -0.5086    2.6833   -1.8039 H       1  UNL1        0.0272
     42 H           0.7755    1.8128   -2.6844 H       1  UNL1        0.0272
     43 H          -0.5722   -0.0123   -3.1260 H       1  UNL1        0.0310
     44 H          -1.8249    1.2463   -3.0626 H       1  UNL1        0.0310
     45 H          -2.4022   -1.4717   -2.7690 H       1  UNL1        0.0656
     46 H          -2.9640   -2.4679    1.5084 H       1  UNL1        0.0653
     47 H          -1.8662   -0.4134    2.1259 H       1  UNL1        0.0583
     48 H           1.7208    1.6640    2.8555 H       1  UNL1        0.0297
     49 H           0.5681    2.9860    2.7478 H       1  UNL1        0.0297
     50 H           5.8722    2.8651    2.0455 H       1  UNL1        0.0779
     51 H           4.9295    3.2270    3.4222 H       1  UNL1        0.0779
     52 H           6.9290   -0.5672    4.5836 H       1  UNL1        0.0342
     53 H           8.5236    0.2061    4.4183 H       1  UNL1        0.0342
     54 H           7.5201    0.5335    5.8514 H       1  UNL1        0.0342
     55 H           4.1957    4.7282    1.8146 H       1  UNL1        0.2108
     56 H           0.1436    3.8053   -0.0678 H       1  UNL1        0.0236
     57 H           0.7169    4.5970    1.4198 H       1  UNL1        0.0236
     58 H           1.7177    4.6359   -0.0516 H       1  UNL1        0.0236
     59 H           0.7198   -0.3652    2.8793 H       1  UNL1        0.2099
     60 H          -2.8221    2.2085   -0.6265 H       1  UNL1        0.0242
     61 H          -3.8878    0.8658   -0.1473 H       1  UNL1        0.0242
     62 H          -3.0567    1.8300    1.0969 H       1  UNL1        0.0242
@<TRIPOS>BOND
     1     1     2    1
     2     1    36    1
     3     1    37    1
     4     1    38    1
     5     2     3    1
     6     2    23    1
     7     2     4    1
     8     4     5    1
     9     4    39    1
    10     4    40    1
    11     5     6    1
    12     5    22    1
    13     5     7    1
    14     7     8    1
    15     7    18    1
    16     7     9    1
    17     9    10    1
    18     9    41    1
    19     9    42    1
    20    10    11    1
    21    10    43    1
    22    10    44    1
    23    11    17    1
    24    11    12    2
    25    12    13    1
    26    12    45    1
    27    13    14    2
    28    13    15    1
    29    15    16    2
    30    15    46    1
    31    16    17    1
    32    16    47    1
    33    17    18    1
    34    17    35    1
    35    18    19    1
    36    18    34    1
    37    19    20    1
    38    19    21    1
    39    19    33    1
    40    21    22    1
    41    21    48    1
    42    21    49    1
    43    22    23    1
    44    22    32    1
    45    23    24    1
    46    23    31    1
    47    24    25    2
    48    24    26    1
    49    26    27    1
    50    26    50    1
    51    26    51    1
    52    27    28    1
    53    28    29    2
    54    28    30    1
    55    30    52    1
    56    30    53    1
    57    30    54    1
    58    31    55    1
    59    32    56    1
    60    32    57    1
    61    32    58    1
    62    33    59    1
    63    35    60    1
    64    35    61    1
    65    35    62    1
