@<TRIPOS>MOLECULE
ZINC14613095
 52 53 0 0 0
SMALL
GASTEIGER

@<TRIPOS>ATOM
      1 C          -4.4060    0.3777    5.0625 C.3     1  UNL1        0.0381
      2 C          -3.2881    1.3571    5.4260 C.3     1  UNL1        0.0100
      3 H          -3.7137    2.3449    5.6024 H       1  UNL1        0.0878
      4 C          -2.2824    1.4329    4.2755 C.3     1  UNL1        0.1260
      5 H          -1.4861    2.1307    4.5345 H       1  UNL1        0.0677
      6 C          -2.9919    1.9161    3.0090 C.3     1  UNL1        0.1177
      7 H          -2.2754    1.9701    2.1893 H       1  UNL1        0.0649
      8 C          -4.1097    0.9367    2.6455 C.3     1  UNL1        0.1326
      9 H          -3.6842   -0.0512    2.4692 H       1  UNL1        0.0681
     10 C          -5.1154    0.8608    3.7960 C.3     1  UNL1        0.0104
     11 H          -5.5410    1.8487    3.9723 H       1  UNL1        0.0878
     12 O          -4.7724    1.3879    1.4625 O.3     1  UNL1       -0.3347
     13 C          -4.2043    0.8866    0.2509 C.3     1  UNL1        0.2061
     14 H          -4.1702   -0.2022    0.2887 H       1  UNL1        0.0970
     15 C          -5.0625    1.3296   -0.9369 C.3     1  UNL1        0.0568
     16 H          -6.0610    0.9025   -0.8442 H       1  UNL1        0.0927
     17 C          -4.4147    0.8397   -2.2356 C.3     1  UNL1        0.1305
     18 H          -4.3916   -0.2500   -2.2431 H       1  UNL1        0.0679
     19 C          -2.9849    1.3831   -2.3168 C.3     1  UNL1        0.1176
     20 H          -3.0109    2.4720   -2.3593 H       1  UNL1        0.0649
     21 C          -2.2069    0.9381   -1.0756 C.3     1  UNL1        0.1296
     22 H          -2.1464   -0.1501   -1.0554 H       1  UNL1        0.0678
     23 O          -2.8794    1.3998    0.0977 O.3     1  UNL1       -0.3351
     24 C          -0.7955    1.5269   -1.1198 C.3     1  UNL1       -0.0058
     25 O          -2.3452    0.8746   -3.4891 O.3     1  UNL1       -0.3862
     26 O          -5.1695    1.3112   -3.3537 O.3     1  UNL1       -0.3834
     27 O          -3.5498    3.2112    3.2401 O.3     1  UNL1       -0.3862
     28 O          -1.7245    0.1378    4.0444 O.3     1  UNL1       -0.3835
     29 H          -3.9804   -0.6102    4.8862 H       1  UNL1        0.0377
     30 H          -5.1225    0.3236    5.8822 H       1  UNL1        0.0377
     31 H          -6.8663   -0.1474    4.1915 H       1  UNL1        0.1998
     32 H          -6.6307    0.1823    2.5785 H       1  UNL1        0.1998
     33 H          -0.8526    2.6132   -1.0504 H       1  UNL1        0.0840
     34 H          -0.3144    1.2475   -2.0571 H       1  UNL1        0.0840
     35 H           0.0021   -0.0041    0.0020 H       1  UNL1        0.1995
     36 H           0.9253    1.3792    0.0006 H       1  UNL1        0.1995
     37 H          -2.7857    1.1186   -4.3147 H       1  UNL1        0.2100
     38 H          -4.8113    1.0433   -4.2111 H       1  UNL1        0.2102
     39 H          -5.5785    3.1428   -0.1096 H       1  UNL1        0.2000
     40 H          -4.2472    3.2126   -1.1039 H       1  UNL1        0.2000
     41 H          -2.8969    3.8844    3.4759 H       1  UNL1        0.2100
     42 H          -1.0770    0.1109    3.3267 H       1  UNL1        0.2102
     43 H          -3.2505    0.8346    7.4170 H       1  UNL1        0.1998
     44 H          -2.1490    0.0080    6.4847 H       1  UNL1        0.1998
     45 N          -6.1752   -0.1008    3.4446 N.4     1  UNL1        0.2228
     46 H          -5.7583   -1.0303    3.3155 H       1  UNL1        0.1998
     47 N          -0.0252    1.0139    0.0269 N.4     1  UNL1        0.2204
     48 H          -0.4761    1.3157    0.8986 H       1  UNL1        0.1995
     49 N          -5.1692    2.7987   -0.9767 N.4     1  UNL1        0.2263
     50 H          -5.7706    3.0723   -1.7626 H       1  UNL1        0.2000
     51 N          -2.5903    0.9120    6.6452 N.4     1  UNL1        0.2228
     52 H          -1.8675    1.5988    6.8902 H       1  UNL1        0.1998
@<TRIPOS>UNITY_ATOM_ATTR
45 1
charge 1
47 1
charge 1
49 1
charge 1
51 1
charge 1
@<TRIPOS>BOND
     1     1    10    1
     2     1     2    1
     3     1    29    1
     4     1    30    1
     5     2     3    1
     6     2     4    1
     7     2    51    1
     8     4     5    1
     9     4     6    1
    10     4    28    1
    11     6     7    1
    12     6     8    1
    13     6    27    1
    14     8     9    1
    15     8    10    1
    16     8    12    1
    17    10    11    1
    18    10    45    1
    19    12    13    1
    20    13    14    1
    21    13    23    1
    22    13    15    1
    23    15    16    1
    24    15    17    1
    25    15    49    1
    26    17    18    1
    27    17    19    1
    28    17    26    1
    29    19    20    1
    30    19    21    1
    31    19    25    1
    32    21    22    1
    33    21    23    1
    34    21    24    1
    35    24    33    1
    36    24    34    1
    37    24    47    1
    38    25    37    1
    39    26    38    1
    40    27    41    1
    41    28    42    1
    42    31    45    1
    43    32    45    1
    44    35    47    1
    45    36    47    1
    46    39    49    1
    47    40    49    1
    48    43    51    1
    49    44    51    1
    50    45    46    1
    51    47    48    1
    52    49    50    1
    53    51    52    1
