@<TRIPOS>MOLECULE
ZINC03831599
 67 70 0 0 0
SMALL
GASTEIGER

@<TRIPOS>ATOM
      1 C          -3.5572    2.7912    0.9683 C.3     1  UNL1       -0.0621
      2 C          -3.7932    1.5936    0.0457 C.3     1  UNL1       -0.0402
      3 H          -3.2228    0.7382    0.4076 H       1  UNL1        0.0301
      4 C          -3.3401    1.9455   -1.3727 C.3     1  UNL1       -0.0451
      5 C          -1.8196    2.1148   -1.3951 C.3     1  UNL1       -0.0130
      6 C          -1.3733    2.4614   -2.7921 C.2     1  UNL1        0.0418
      7 O          -2.1878    2.5626   -3.6789 O.co2   1  UNL1       -0.5498
      8 C          -5.2765    1.2465    0.0335 C.3     1  UNL1       -0.0328
      9 H          -5.5018    0.5248   -0.7483 H       1  UNL1        0.0309
     10 C          -6.1198    2.5339   -0.1640 C.3     1  UNL1       -0.0492
     11 C          -6.6879    2.9064    1.2315 C.3     1  UNL1       -0.0491
     12 C          -5.8980    2.0110    2.1983 C.3     1  UNL1       -0.0299
     13 H          -4.8939    2.4648    2.3294 H       1  UNL1        0.0310
     14 C          -5.7614    0.7051    1.3920 C.3     1  UNL1       -0.0258
     15 C          -4.8624   -0.2870    2.0767 C.3     1  UNL1       -0.0468
     16 C          -5.0025   -0.2066    3.6045 C.3     1  UNL1       -0.0489
     17 C          -6.3570    0.3529    4.0118 C.3     1  UNL1       -0.0299
     18 H          -7.1503   -0.2457    3.5632 H       1  UNL1        0.0310
     19 C          -6.4893    1.8061    3.5619 C.3     1  UNL1       -0.0083
     20 H          -5.8784    2.4117    4.2640 H       1  UNL1        0.0331
     21 C          -7.9253    2.2926    3.7039 C.3     1  UNL1        0.0589
     22 H          -8.5426    1.8888    2.9066 H       1  UNL1        0.0596
     23 C          -8.4839    1.8284    5.0606 C.3     1  UNL1       -0.0232
     24 C          -7.3093    1.5273    5.9787 C.3     1  UNL1       -0.0307
     25 H          -6.6024    2.3719    5.9038 H       1  UNL1        0.0308
     26 C          -6.5781    0.2648    5.5209 C.3     1  UNL1       -0.0258
     27 C          -5.2831    0.1304    6.3076 C.3     1  UNL1       -0.0448
     28 C          -5.5860    0.0724    7.8063 C.3     1  UNL1       -0.0263
     29 C          -6.4037    1.2758    8.2644 C.3     1  UNL1        0.0555
     30 H          -5.8104    2.1836    8.1390 H       1  UNL1        0.0593
     31 C          -7.6972    1.4034    7.4463 C.3     1  UNL1       -0.0234
     32 O          -6.7356    1.1240    9.6467 O.3     1  UNL1       -0.3918
     33 C          -7.4470   -0.9699    5.7760 C.3     1  UNL1       -0.0590
     34 O          -7.9548    3.7216    3.6613 O.3     1  UNL1       -0.3915
     35 C          -7.1344    0.0659    1.1187 C.3     1  UNL1       -0.0590
     36 H          -2.6663    3.3292    0.6445 H       1  UNL1        0.0233
     37 H          -4.4191    3.4572    0.9267 H       1  UNL1        0.0233
     38 H          -3.4182    2.4402    1.9908 H       1  UNL1        0.0233
     39 H          -3.8139    2.8760   -1.6852 H       1  UNL1        0.0271
     40 H          -3.6266    1.1450   -2.0547 H       1  UNL1        0.0271
     41 H          -1.3458    1.1843   -1.0826 H       1  UNL1        0.0325
     42 H          -1.5331    2.9153   -0.7131 H       1  UNL1        0.0325
     43 H          -5.4858    3.3378   -0.5366 H       1  UNL1        0.0268
     44 H          -6.9329    2.3430   -0.8630 H       1  UNL1        0.0268
     45 H          -7.7551    2.7070    1.2829 H       1  UNL1        0.0268
     46 H          -6.4923    3.9601    1.4486 H       1  UNL1        0.0268
     47 H          -5.1339   -1.3058    1.7530 H       1  UNL1        0.0271
     48 H          -3.8110   -0.1429    1.8171 H       1  UNL1        0.0271
     49 H          -4.8789   -1.2098    4.0248 H       1  UNL1        0.0268
     50 H          -4.2083    0.4316    4.0031 H       1  UNL1        0.0268
     51 H          -9.1087    0.9521    4.9198 H       1  UNL1        0.0293
     52 H          -9.0836    2.6357    5.4907 H       1  UNL1        0.0293
     53 H          -4.7664   -0.7848    6.0085 H       1  UNL1        0.0271
     54 H          -4.6380    0.9867    6.0990 H       1  UNL1        0.0271
     55 H          -4.6348    0.0707    8.3539 H       1  UNL1        0.0290
     56 H          -6.1119   -0.8466    8.0547 H       1  UNL1        0.0290
     57 H          -8.2208    2.3184    7.7553 H       1  UNL1        0.0293
     58 H          -8.3505    0.5587    7.6266 H       1  UNL1        0.0293
     59 H          -5.9679    1.0372   10.2282 H       1  UNL1        0.2098
     60 H          -6.9323   -1.8583    5.4100 H       1  UNL1        0.0235
     61 H          -7.6298   -1.0707    6.8458 H       1  UNL1        0.0235
     62 H          -8.3973   -0.8596    5.2538 H       1  UNL1        0.0235
     63 H          -8.8395    4.0998    3.7582 H       1  UNL1        0.2098
     64 H          -7.0481   -0.6413    0.2937 H       1  UNL1        0.0235
     65 H          -7.4758   -0.4574    2.0117 H       1  UNL1        0.0235
     66 H          -7.8516    0.8438    0.8568 H       1  UNL1        0.0235
     67 O          -0.0716    2.6631   -3.0502 O.co2   1  UNL1       -0.5498
@<TRIPOS>UNITY_ATOM_ATTR
67 1
charge -1
@<TRIPOS>BOND
     1     1     2    1
     2     1    36    1
     3     1    37    1
     4     1    38    1
     5     2     3    1
     6     2     4    1
     7     2     8    1
     8     4     5    1
     9     4    39    1
    10     4    40    1
    11     5     6    1
    12     5    41    1
    13     5    42    1
    14     6     7   ar
    15     6    67   ar
    16     8     9    1
    17     8    14    1
    18     8    10    1
    19    10    11    1
    20    10    43    1
    21    10    44    1
    22    11    12    1
    23    11    45    1
    24    11    46    1
    25    12    13    1
    26    12    19    1
    27    12    14    1
    28    14    15    1
    29    14    35    1
    30    15    16    1
    31    15    47    1
    32    15    48    1
    33    16    17    1
    34    16    49    1
    35    16    50    1
    36    17    18    1
    37    17    26    1
    38    17    19    1
    39    19    20    1
    40    19    21    1
    41    21    22    1
    42    21    23    1
    43    21    34    1
    44    23    24    1
    45    23    51    1
    46    23    52    1
    47    24    25    1
    48    24    31    1
    49    24    26    1
    50    26    27    1
    51    26    33    1
    52    27    28    1
    53    27    53    1
    54    27    54    1
    55    28    29    1
    56    28    55    1
    57    28    56    1
    58    29    30    1
    59    29    31    1
    60    29    32    1
    61    31    57    1
    62    31    58    1
    63    32    59    1
    64    33    60    1
    65    33    61    1
    66    33    62    1
    67    34    63    1
    68    35    64    1
    69    35    65    1
    70    35    66    1
