@<TRIPOS>MOLECULE
ZINC00001875
 29 31 0 0 0
SMALL
GASTEIGER

@<TRIPOS>ATOM
      1 C          -0.5524   -2.9274   -1.4424 C.3     1  UNL1       -0.0471
      2 C          -0.0331   -2.7902   -0.0098 C.3     1  UNL1        0.0205
      3 N           1.2397   -2.0649   -0.0192 N.ar    1  UNL1       -0.3460
      4 C           2.3787   -2.7689   -0.0329 C.ar    1  UNL1        0.0176
      5 C           3.6181   -2.1619   -0.0429 C.ar    1  UNL1        0.0607
      6 C           3.6904   -0.6916   -0.0378 C.ar    1  UNL1        0.1983
      7 O           4.7607   -0.1085   -0.0464 O.2     1  UNL1       -0.2865
      8 C           2.4153    0.0456   -0.0215 C.ar    1  UNL1        0.0495
      9 C           1.2139   -0.6855   -0.0131 C.ar    1  UNL1        0.0565
     10 C           0.0021   -0.0041    0.0020 C.ar    1  UNL1        0.0081
     11 C          -0.0167    1.3789    0.0096 C.ar    1  UNL1        0.1682
     12 C           1.1807    2.1034    0.0021 C.ar    1  UNL1        0.1670
     13 C           2.3903    1.4417   -0.0141 C.ar    1  UNL1       -0.0033
     14 O           0.8822    3.4361    0.0138 O.3     1  UNL1       -0.4526
     15 C          -0.4899    3.5182    0.4417 C.3     1  UNL1        0.2332
     16 O          -1.0563    2.2622    0.0299 O.3     1  UNL1       -0.4525
     17 C           4.8454   -2.9700   -0.0587 C.2     1  UNL1        0.0767
     18 O           5.9320   -2.4249   -0.0674 O.co2   1  UNL1       -0.5445
     19 H          -0.7021   -1.9364   -1.8711 H       1  UNL1        0.0247
     20 H           0.1742   -3.4763   -2.0413 H       1  UNL1        0.0247
     21 H          -1.4994   -3.4670   -1.4355 H       1  UNL1        0.0247
     22 H           0.1166   -3.7811    0.4188 H       1  UNL1        0.0489
     23 H          -0.7597   -2.2412    0.5891 H       1  UNL1        0.0489
     24 H           2.3256   -3.8476   -0.0359 H       1  UNL1        0.0817
     25 H          -0.9264   -0.5557    0.0082 H       1  UNL1        0.0676
     26 H           3.3143    2.0008   -0.0207 H       1  UNL1        0.0663
     27 H          -0.5472    3.6230    1.5252 H       1  UNL1        0.1166
     28 H          -0.9948    4.3501   -0.0494 H       1  UNL1        0.1166
     29 O           4.7663   -4.3157   -0.0636 O.co2   1  UNL1       -0.5445
@<TRIPOS>UNITY_ATOM_ATTR
29 1
charge -1
@<TRIPOS>BOND
     1     1     2    1
     2     1    19    1
     3     1    20    1
     4     1    21    1
     5     2     3    1
     6     2    22    1
     7     2    23    1
     8     3     9   ar
     9     3     4   ar
    10     4     5   ar
    11     4    24    1
    12     5     6   ar
    13     5    17    1
    14     6     7    2
    15     6     8   ar
    16     8    13   ar
    17     8     9   ar
    18     9    10   ar
    19    10    11   ar
    20    10    25    1
    21    11    16    1
    22    11    12   ar
    23    12    13   ar
    24    12    14    1
    25    13    26    1
    26    14    15    1
    27    15    16    1
    28    15    27    1
    29    15    28    1
    30    17    18   ar
    31    17    29   ar
