@<TRIPOS>MOLECULE
ZINC14676555
 64 67 0 0 0
SMALL
GASTEIGER

@<TRIPOS>ATOM
      1 C           1.4041   -2.1008   -0.0952 C.3     1  UNL1       -0.0510
      2 C           1.3737   -0.5823    0.0894 C.3     1  UNL1        0.0108
      3 N           0.0290   -0.0783   -0.2200 N.3     1  UNL1       -0.2409
      4 N          -0.0333    1.2774   -0.0650 N.am    1  UNL1       -0.2507
      5 C          -1.1866    1.9312   -0.3080 C.2     1  UNL1        0.2309
      6 O          -2.1426    1.3304   -0.7507 O.2     1  UNL1       -0.2742
      7 C          -1.2882    3.4088   -0.0298 C.3     1  UNL1        0.0551
      8 H          -0.7405    3.6493    0.8815 H       1  UNL1        0.0408
      9 C          -0.7032    4.1976   -1.2073 C.3     1  UNL1        0.0243
     10 H          -0.9410    5.2554   -1.0949 H       1  UNL1        0.0359
     11 C          -1.3221    3.6656   -2.4982 C.3     1  UNL1        0.0862
     12 H          -1.0365    4.3132   -3.3271 H       1  UNL1        0.0647
     13 C          -2.8245    3.6307   -2.3910 C.ar    1  UNL1       -0.0113
     14 C          -3.5534    3.5369   -3.5704 C.ar    1  UNL1       -0.0102
     15 C          -4.9346    3.4958   -3.5429 C.ar    1  UNL1        0.1666
     16 C          -5.6001    3.5484   -2.3200 C.ar    1  UNL1        0.1665
     17 C          -4.8708    3.6429   -1.1498 C.ar    1  UNL1       -0.0120
     18 C          -3.4823    3.6864   -1.1828 C.ar    1  UNL1       -0.0299
     19 C          -2.7550    3.8023    0.1315 C.3     1  UNL1        0.0214
     20 H          -3.2255    3.1441    0.8619 H       1  UNL1        0.0405
     21 C          -2.8369    5.2253    0.6210 C.ar    1  UNL1       -0.0321
     22 C          -3.0195    5.4818    1.9669 C.ar    1  UNL1       -0.0123
     23 C          -3.0905    6.7898    2.4220 C.ar    1  UNL1        0.1654
     24 C          -2.9888    7.8433    1.5213 C.ar    1  UNL1        0.2035
     25 C          -2.8105    7.5811    0.1682 C.ar    1  UNL1        0.1654
     26 C          -2.7348    6.2703   -0.2780 C.ar    1  UNL1       -0.0123
     27 O          -2.7100    8.6086   -0.7171 O.3     1  UNL1       -0.4913
     28 C          -2.5274    8.2648   -2.0920 C.3     1  UNL1        0.0790
     29 O          -3.0640    9.1283    1.9631 O.3     1  UNL1       -0.4885
     30 C          -4.3625    9.7230    2.0109 C.3     1  UNL1        0.0791
     31 O          -3.2649    7.0412    3.7471 O.3     1  UNL1       -0.4913
     32 C          -3.3613    5.9099    4.6149 C.3     1  UNL1        0.0790
     33 O          -6.9441    3.4909   -2.5520 O.3     1  UNL1       -0.4526
     34 C          -7.0814    2.9924   -3.8958 C.3     1  UNL1        0.2332
     35 O          -5.8622    3.4066   -4.5404 O.3     1  UNL1       -0.4526
     36 O          -0.8365    2.3442   -2.7438 O.3     1  UNL1       -0.3868
     37 C           0.8150    4.0123   -1.2482 C.3     1  UNL1        0.0504
     38 O           1.3639    4.8087   -2.3002 O.3     1  UNL1       -0.3946
     39 H           0.6797   -2.5630    0.5754 H       1  UNL1        0.0242
     40 H           1.1525   -2.3466   -1.1269 H       1  UNL1        0.0242
     41 H           2.4019   -2.4748    0.1344 H       1  UNL1        0.0242
     42 H           2.0981   -0.1202   -0.5812 H       1  UNL1        0.0438
     43 H           1.6253   -0.3366    1.1211 H       1  UNL1        0.0438
     44 H          -0.2536   -0.3493   -1.1500 H       1  UNL1        0.1442
     45 H           0.7535    1.7701    0.2162 H       1  UNL1        0.1689
     46 H          -3.0358    3.4962   -4.5174 H       1  UNL1        0.0659
     47 H          -5.3849    3.6830   -0.2008 H       1  UNL1        0.0658
     48 H          -3.1028    4.6625    2.6656 H       1  UNL1        0.0658
     49 H          -2.5963    6.0657   -1.3294 H       1  UNL1        0.0658
     50 H          -1.6075    7.6908   -2.2039 H       1  UNL1        0.0660
     51 H          -3.3726    7.6666   -2.4323 H       1  UNL1        0.0660
     52 H          -2.4626    9.1748   -2.6885 H       1  UNL1        0.0660
     53 H          -4.7953    9.7314    1.0105 H       1  UNL1        0.0660
     54 H          -5.0021    9.1458    2.6786 H       1  UNL1        0.0660
     55 H          -4.2807   10.7453    2.3800 H       1  UNL1        0.0660
     56 H          -2.4469    5.3206    4.5465 H       1  UNL1        0.0660
     57 H          -3.4985    6.2500    5.6413 H       1  UNL1        0.0660
     58 H          -4.2120    5.2962    4.3187 H       1  UNL1        0.0660
     59 H          -7.1639    1.9056   -3.8947 H       1  UNL1        0.1166
     60 H          -7.9467    3.4407   -4.3841 H       1  UNL1        0.1166
     61 H          -1.1869    1.9398   -3.5492 H       1  UNL1        0.2102
     62 H           1.2447    4.3224   -0.2957 H       1  UNL1        0.0561
     63 H           1.0482    2.9628   -1.4276 H       1  UNL1        0.0561
     64 H           2.3247    4.7404   -2.3849 H       1  UNL1        0.2094
@<TRIPOS>BOND
     1     1     2    1
     2     1    39    1
     3     1    40    1
     4     1    41    1
     5     2     3    1
     6     2    42    1
     7     2    43    1
     8     3     4    1
     9     3    44    1
    10     4     5   am
    11     4    45    1
    12     5     6    2
    13     5     7    1
    14     7     8    1
    15     7    19    1
    16     7     9    1
    17     9    10    1
    18     9    11    1
    19     9    37    1
    20    11    12    1
    21    11    13    1
    22    11    36    1
    23    13    18   ar
    24    13    14   ar
    25    14    15   ar
    26    14    46    1
    27    15    35    1
    28    15    16   ar
    29    16    17   ar
    30    16    33    1
    31    17    18   ar
    32    17    47    1
    33    18    19    1
    34    19    20    1
    35    19    21    1
    36    21    26   ar
    37    21    22   ar
    38    22    23   ar
    39    22    48    1
    40    23    24   ar
    41    23    31    1
    42    24    25   ar
    43    24    29    1
    44    25    26   ar
    45    25    27    1
    46    26    49    1
    47    27    28    1
    48    28    50    1
    49    28    51    1
    50    28    52    1
    51    29    30    1
    52    30    53    1
    53    30    54    1
    54    30    55    1
    55    31    32    1
    56    32    56    1
    57    32    57    1
    58    32    58    1
    59    33    34    1
    60    34    35    1
    61    34    59    1
    62    34    60    1
    63    36    61    1
    64    37    38    1
    65    37    62    1
    66    37    63    1
    67    38    64    1
