@<TRIPOS>MOLECULE
ZINC00002101
 19 19 0 0 0
SMALL
GASTEIGER

@<TRIPOS>ATOM
      1 C          -0.0167    1.3768    0.0096 C.ar    1  UNL1       -0.0392
      2 C           0.0021   -0.0041    0.0020 C.ar    1  UNL1       -0.0336
      3 C           1.2080   -0.6807   -0.0131 C.ar    1  UNL1        0.1051
      4 C           2.3988    0.0223   -0.0203 C.ar    1  UNL1       -0.0336
      5 C           2.3873    1.4033   -0.0123 C.ar    1  UNL1       -0.0392
      6 C           1.1777    2.0861    0.0020 C.ar    1  UNL1        0.0247
      7 N           1.1624    3.4827    0.0092 N.pl3   1  UNL1       -0.3580
      8 S           1.2273   -2.4426   -0.0228 S.O2    1  UNL1        0.0559
      9 O           2.4822   -2.8379    0.5140 O.2     1  UNL1       -0.1533
     10 O          -0.0082   -2.8653    0.5376 O.2     1  UNL1       -0.1533
     11 N           1.2175   -2.9237   -1.6073 N.3     1  UNL1       -0.2035
     12 H          -0.9588    1.9047    0.0170 H       1  UNL1        0.0636
     13 H          -0.9261   -0.5561    0.0083 H       1  UNL1        0.0638
     14 H           3.3389   -0.5092   -0.0317 H       1  UNL1        0.0638
     15 H           3.3177    1.9517   -0.0179 H       1  UNL1        0.0636
     16 H           0.3171    3.9585    0.0195 H       1  UNL1        0.1423
     17 H           1.9971    3.9770    0.0039 H       1  UNL1        0.1423
     18 H           1.2035   -2.2608   -2.3154 H       1  UNL1        0.1442
     19 H           1.2258   -3.8683   -1.8274 H       1  UNL1        0.1442
@<TRIPOS>BOND
     1     1     6   ar
     2     1     2   ar
     3     1    12    1
     4     2     3   ar
     5     2    13    1
     6     3     4   ar
     7     3     8    1
     8     4     5   ar
     9     4    14    1
    10     5     6   ar
    11     5    15    1
    12     6     7    1
    13     7    16    1
    14     7    17    1
    15     8     9    2
    16     8    10    2
    17     8    11    1
    18    11    18    1
    19    11    19    1
