@<TRIPOS>MOLECULE
ZINC03978030
 43 45 0 0 0
SMALL
GASTEIGER

@<TRIPOS>ATOM
      1 C          -3.3113    5.4875    1.0764 C.3     1  UNL1       -0.0409
      2 C          -2.4116    4.2789    1.1076 C.2     1  UNL1       -0.0396
      3 CA         -2.4305    3.5186    0.0233 C.2     1  UNL1        0.0596
      4 N          -1.6007    2.3835   -0.0723 N.am    1  UNL1       -0.2534
      5 C          -0.9334    1.6795    1.0689 C.3     1  UNL1        0.1041
      6 H          -1.5458    0.9623    1.6154 H       1  UNL1        0.0644
      7 CA         -0.0127    1.0858    0.0080 C.3     1  UNL1        0.1285
      8 HA          0.0021   -0.0041    0.0020 H       1  UNL1        0.0622
      9 C          -0.9499    1.6885   -1.0248 C.2     1  UNL1        0.2438
     10 O          -1.0652    1.5842   -2.2277 O.2     1  UNL1       -0.2731
     11 N           1.3291    1.6738   -0.0016 N.am    1  UNL1       -0.2968
     12 C           2.3649    0.9807   -0.5147 C.2     1  UNL1        0.2662
     13 O           2.1861   -0.1298   -0.9684 O.2     1  UNL1       -0.2692
     14 CA          3.7451    1.5855   -0.5246 C.3     1  UNL1        0.0752
     15 HA          3.9147    2.1192    0.4106 H       1  UNL1        0.0999
     16 C           3.8644    2.5460   -1.6798 C.2     1  UNL1       -0.0131
     17 C           4.0356    3.8072   -1.4238 C.2     1  UNL1       -0.0750
     18 C           4.1659    4.8444   -2.4983 C.3     1  UNL1       -0.0161
     19 C           4.5435    4.2224   -3.8089 C.2     1  UNL1       -0.0839
     20 C           4.3727    2.9611   -4.0648 C.2     1  UNL1       -0.0834
     21 C           3.7863    2.0030   -3.0749 C.3     1  UNL1       -0.0078
     22 S          -0.1925    2.9877    2.1028 S.3     1  UNL1       -0.1312
     23 C          -1.6142    4.0947    2.3574 C.3     1  UNL1        0.0184
     24 C          -3.3387    3.8495   -1.0896 C.2     1  UNL1        0.0859
     25 O          -3.3580    3.1536   -2.0855 O.co2   1  UNL1       -0.5433
     26 H          -3.2154    6.0361    2.0133 H       1  UNL1        0.0275
     27 H          -3.0241    6.1329    0.2463 H       1  UNL1        0.0275
     28 H          -4.3452    5.1675    0.9470 H       1  UNL1        0.0275
     29 H           1.4720    2.5619    0.3612 H       1  UNL1        0.1497
     30 H           4.0867    4.1227   -0.3921 H       1  UNL1        0.0577
     31 H           3.2143    5.3642   -2.6104 H       1  UNL1        0.0350
     32 H           4.9327    5.5633   -2.2098 H       1  UNL1        0.0350
     33 H           4.9767    4.8506   -4.5732 H       1  UNL1        0.0572
     34 H           4.6699    2.5854   -5.0327 H       1  UNL1        0.0572
     35 H           4.3308    1.0599   -3.1223 H       1  UNL1        0.0354
     36 H           2.7419    1.8246   -3.3310 H       1  UNL1        0.0354
     37 H1          4.6098    0.0099   -1.5287 H       1  UNL1        0.2005
     38 H2          5.6817    0.8926   -0.6135 H       1  UNL1        0.2005
     39 H          -2.2578    3.6730    3.1295 H       1  UNL1        0.0423
     40 H          -1.2511    5.0667    2.6911 H       1  UNL1        0.0423
     41 N           4.7401    0.5056   -0.6484 N.4     1  UNL1        0.2305
     42 H3          4.6202   -0.1545    0.1288 H       1  UNL1        0.2005
     43 OXT        -4.1477    4.9239   -1.0025 O.co2   1  UNL1       -0.5433
@<TRIPOS>UNITY_ATOM_ATTR
41 1
charge 1
43 1
charge -1
@<TRIPOS>BOND
     1     1     2    1
     2     1    26    1
     3     1    27    1
     4     1    28    1
     5     2    23    1
     6     2     3    2
     7     3     4    1
     8     3    24    1
     9     4     9   am
    10     4     5    1
    11     5     6    1
    12     5     7    1
    13     5    22    1
    14     7     8    1
    15     7     9    1
    16     7    11    1
    17     9    10    2
    18    11    12   am
    19    11    29    1
    20    12    13    2
    21    12    14    1
    22    14    15    1
    23    14    16    1
    24    14    41    1
    25    16    21    1
    26    16    17    2
    27    17    18    1
    28    17    30    1
    29    18    19    1
    30    18    31    1
    31    18    32    1
    32    19    20    2
    33    19    33    1
    34    20    21    1
    35    20    34    1
    36    21    35    1
    37    21    36    1
    38    22    23    1
    39    23    39    1
    40    23    40    1
    41    24    25   ar
    42    24    43   ar
    43    37    41    1
    44    38    41    1
    45    41    42    1
