@<TRIPOS>MOLECULE
ZINC03831242
 46 49 0 0 0
SMALL
GASTEIGER

@<TRIPOS>ATOM
      1 C           4.8334    6.6575   -0.7661 C.3     1  UNL1       -0.0029
      2 C           4.0084    5.4667   -0.3507 C.ar    1  UNL1        0.1469
      3 C           2.6951    5.2276   -0.6681 C.ar    1  UNL1        0.1060
      4 C           2.4253    3.9375    0.0005 C.ar    1  UNL1        0.1257
      5 N           3.5492    3.6167    0.5892 N.ar    1  UNL1       -0.0773
      6 O           4.4121    4.4382    0.3985 O.2     1  UNL1       -0.3586
      7 C           1.1534    3.1743    0.0081 C.ar    1  UNL1        0.0044
      8 C           1.1739    1.7808    0.0004 C.ar    1  UNL1       -0.0524
      9 C          -0.0126    1.0758    0.0080 C.ar    1  UNL1       -0.0611
     10 C          -1.2205    1.7498    0.0174 C.ar    1  UNL1       -0.0617
     11 C          -1.2467    3.1327    0.0308 C.ar    1  UNL1       -0.0611
     12 C          -0.0665    3.8480    0.0234 C.ar    1  UNL1       -0.0524
     13 C           1.7803    6.0529   -1.4751 C.2     1  UNL1        0.2502
     14 O           1.0997    6.9070   -0.9399 O.2     1  UNL1       -0.2700
     15 N           1.6974    5.8616   -2.8066 N.am    1  UNL1       -0.2976
     16 CA          0.7875    6.6824   -3.6093 C.3     1  UNL1        0.1279
     17 HA         -0.0505    7.0751   -3.0334 H       1  UNL1        0.0622
     18 C           0.3753    6.0321   -4.9314 C.3     1  UNL1        0.1003
     19 H          -0.6854    6.0810   -5.1775 H       1  UNL1        0.0640
     20 N           1.2603    7.0144   -5.6027 N.am    1  UNL1       -0.2761
     21 C           1.4905    7.7261   -4.4519 C.2     1  UNL1        0.2401
     22 O           2.0403    8.7786   -4.2050 O.2     1  UNL1       -0.2734
     23 CA          2.4643    6.4157   -6.2451 C.3     1  UNL1        0.0807
     24 HA          3.3000    6.4479   -5.5461 H       1  UNL1        0.0576
     25 C           2.2212    4.9431   -6.6767 C.3     1  UNL1        0.0366
     26 S           1.1734    4.4075   -5.2505 S.3     1  UNL1       -0.1275
     27 C           3.5296    4.1527   -6.7414 C.3     1  UNL1       -0.0486
     28 C           1.4551    4.8635   -7.9986 C.3     1  UNL1       -0.0486
     29 C           2.8110    7.2336   -7.4624 C.2     1  UNL1        0.0635
     30 O           1.9667    7.9171   -7.9916 O.co2   1  UNL1       -0.5478
     31 H           4.7364    7.4452   -0.0189 H       1  UNL1        0.0309
     32 H           5.8795    6.3632   -0.8501 H       1  UNL1        0.0309
     33 H           4.4809    7.0254   -1.7297 H       1  UNL1        0.0309
     34 H           2.1164    1.2536   -0.0118 H       1  UNL1        0.0624
     35 H           0.0021   -0.0041    0.0020 H       1  UNL1        0.0618
     36 H          -2.1466    1.1941    0.0187 H       1  UNL1        0.0618
     37 H          -2.1927    3.6538    0.0423 H       1  UNL1        0.0618
     38 H          -0.0882    4.9278    0.0290 H       1  UNL1        0.0624
     39 H           2.2403    5.1803   -3.2334 H       1  UNL1        0.1499
     40 H           3.3084    3.0947   -6.8823 H       1  UNL1        0.0244
     41 H           4.1306    4.5126   -7.5765 H       1  UNL1        0.0244
     42 H           4.0820    4.2876   -5.8115 H       1  UNL1        0.0244
     43 H           0.5665    5.4923   -7.9420 H       1  UNL1        0.0244
     44 H           2.0944    5.2103   -8.8105 H       1  UNL1        0.0244
     45 H           1.1586    3.8314   -8.1852 H       1  UNL1        0.0244
     46 OXT         4.0577    7.2029   -7.9589 O.co2   1  UNL1       -0.5478
@<TRIPOS>UNITY_ATOM_ATTR
46 1
charge -1
@<TRIPOS>BOND
     1     1     2    1
     2     1    31    1
     3     1    32    1
     4     1    33    1
     5     2     6   ar
     6     2     3   ar
     7     3     4   ar
     8     3    13    1
     9     4     5   ar
    10     4     7    1
    11     5     6   ar
    12     7    12   ar
    13     7     8   ar
    14     8     9   ar
    15     8    34    1
    16     9    10   ar
    17     9    35    1
    18    10    11   ar
    19    10    36    1
    20    11    12   ar
    21    11    37    1
    22    12    38    1
    23    13    14    2
    24    13    15   am
    25    15    16    1
    26    15    39    1
    27    16    17    1
    28    16    21    1
    29    16    18    1
    30    18    19    1
    31    18    26    1
    32    18    20    1
    33    20    21   am
    34    20    23    1
    35    21    22    2
    36    23    24    1
    37    23    25    1
    38    23    29    1
    39    25    26    1
    40    25    27    1
    41    25    28    1
    42    27    40    1
    43    27    41    1
    44    27    42    1
    45    28    43    1
    46    28    44    1
    47    28    45    1
    48    29    30   ar
    49    29    46   ar
