@<TRIPOS>MOLECULE
ZINC08101142
 73 75 0 0 0
SMALL
GASTEIGER

@<TRIPOS>ATOM
      1 C          -0.5081    3.9669    6.2988 C.3     1  UNL1        0.0381
      2 C           0.3064    5.2190    6.6301 C.3     1  UNL1        0.0104
      3 H           0.8978    5.0406    7.5281 H       1  UNL1        0.0878
      4 C           1.2388    5.5449    5.4617 C.3     1  UNL1        0.1326
      5 H           0.6473    5.7233    4.5637 H       1  UNL1        0.0681
      6 C           2.1870    4.3682    5.2224 C.3     1  UNL1        0.1181
      7 H           2.7785    4.1898    6.1204 H       1  UNL1        0.0649
      8 C           1.3726    3.1161    4.8910 C.3     1  UNL1        0.1325
      9 H           2.0481    2.2779    4.7205 H       1  UNL1        0.0681
     10 C           0.4401    2.7902    6.0595 C.3     1  UNL1        0.0104
     11 H           1.0316    2.6118    6.9575 H       1  UNL1        0.0878
     12 O           0.5971    3.3500    3.7137 O.3     1  UNL1       -0.3371
     13 C           1.2643    3.0006    2.4993 C.3     1  UNL1        0.1915
     14 H           2.2573    3.4500    2.4879 H       1  UNL1        0.0939
     15 C           0.4564    3.5173    1.3060 C.3     1  UNL1        0.1506
     16 H           0.4011    4.6051    1.3459 H       1  UNL1        0.0702
     17 C           1.1461    3.0871    0.0077 C.3     1  UNL1        0.0360
     18 H           2.1338    3.5444   -0.0493 H       1  UNL1        0.0904
     19 C           1.2864    1.5618   -0.0018 C.3     1  UNL1        0.1283
     20 H           1.8247    1.2511   -0.8973 H       1  UNL1        0.0678
     21 C           2.0623    1.1207    1.2420 C.3     1  UNL1        0.1159
     22 H           3.0658    1.5453    1.2140 H       1  UNL1        0.0648
     23 O           1.3833    1.5792    2.4128 O.3     1  UNL1       -0.3403
     24 C           2.1547   -0.4063    1.2708 C.3     1  UNL1        0.0731
     25 O           2.9767   -0.8131    2.3667 O.3     1  UNL1       -0.3924
     26 O          -0.0110    0.9628    0.0073 O.3     1  UNL1       -0.3834
     27 O          -0.8630    2.9701    1.3498 O.3     1  UNL1       -0.3812
     28 O           3.0579    4.6726    4.1310 O.3     1  UNL1       -0.3862
     29 O           1.9995    6.7143    5.7711 O.3     1  UNL1       -0.3348
     30 C           2.3623    7.4911    4.6279 C.3     1  UNL1        0.2059
     31 H           2.8103    6.8426    3.8751 H       1  UNL1        0.0970
     32 C           3.3703    8.5669    5.0406 C.3     1  UNL1        0.0567
     33 H           4.2779    8.0920    5.4130 H       1  UNL1        0.0927
     34 C           3.7082    9.4328    3.8231 C.3     1  UNL1        0.1304
     35 H           4.1872    8.8198    3.0596 H       1  UNL1        0.0679
     36 C           2.4151   10.0324    3.2620 C.3     1  UNL1        0.1147
     37 H           2.6388   10.6062    2.3626 H       1  UNL1        0.0648
     38 C           1.4440    8.9000    2.9180 C.3     1  UNL1        0.1132
     39 H           1.8802    8.2701    2.1427 H       1  UNL1        0.0647
     40 O           1.1964    8.1153    4.0863 O.3     1  UNL1       -0.3381
     41 C           0.1271    9.4930    2.4130 C.3     1  UNL1        0.0730
     42 O          -0.7366    8.4385    1.9840 O.3     1  UNL1       -0.3924
     43 O           1.8224   10.8893    4.2400 O.3     1  UNL1       -0.3864
     44 O           4.5921   10.4849    4.2153 O.3     1  UNL1       -0.3834
     45 H          -1.0996    4.1453    5.4008 H       1  UNL1        0.0377
     46 H          -1.1724    3.7347    7.1312 H       1  UNL1        0.0377
     47 H          -0.9659    1.3519    6.4982 H       1  UNL1        0.1998
     48 H          -0.8495    1.7051    4.8772 H       1  UNL1        0.1998
     49 H           1.1568   -0.8285    1.3888 H       1  UNL1        0.0584
     50 H           2.5916   -0.7615    0.3375 H       1  UNL1        0.0584
     51 H           3.0799   -1.7712    2.4465 H       1  UNL1        0.2095
     52 H           0.0021   -0.0041    0.0020 H       1  UNL1        0.2102
     53 H           0.2315    4.5167   -1.1577 H       1  UNL1        0.1999
     54 H           0.7356    3.1790   -2.0076 H       1  UNL1        0.1999
     55 H          -1.3590    3.2027    2.1467 H       1  UNL1        0.2103
     56 H           3.6879    3.9693    3.9226 H       1  UNL1        0.2100
     57 H          -0.3524   10.0507    3.2175 H       1  UNL1        0.0584
     58 H           0.3271   10.1620    1.5761 H       1  UNL1        0.0584
     59 H          -1.5920    8.7418    1.6504 H       1  UNL1        0.2095
     60 H           0.9954   11.3004    3.9533 H       1  UNL1        0.2100
     61 H           4.8429   11.0776    3.4935 H       1  UNL1        0.2102
     62 H           2.5507    8.8578    6.9066 H       1  UNL1        0.2000
     63 H           3.4080   10.1647    6.3383 H       1  UNL1        0.2000
     64 H          -1.2307    6.1579    7.6274 H       1  UNL1        0.1998
     65 H          -0.0890    7.2020    7.0172 H       1  UNL1        0.1998
     66 N          -0.3231    1.5712    5.7390 N.4     1  UNL1        0.2228
     67 H           0.3287    0.7876    5.6151 H       1  UNL1        0.1998
     68 N           0.3162    3.5018   -1.1372 N.4     1  UNL1        0.2246
     69 H          -0.6193    3.0893   -1.0429 H       1  UNL1        0.1999
     70 N           2.7662    9.4162    6.0823 N.4     1  UNL1        0.2263
     71 H           1.8982    9.8283    5.7205 H       1  UNL1        0.2000
     72 N          -0.6163    6.3491    6.8377 N.4     1  UNL1        0.2228
     73 H          -1.1862    6.4789    5.9936 H       1  UNL1        0.1998
@<TRIPOS>UNITY_ATOM_ATTR
66 1
charge 1
68 1
charge 1
70 1
charge 1
72 1
charge 1
@<TRIPOS>BOND
     1     1    10    1
     2     1     2    1
     3     1    45    1
     4     1    46    1
     5     2     3    1
     6     2     4    1
     7     2    72    1
     8     4     5    1
     9     4     6    1
    10     4    29    1
    11     6     7    1
    12     6     8    1
    13     6    28    1
    14     8     9    1
    15     8    10    1
    16     8    12    1
    17    10    11    1
    18    10    66    1
    19    12    13    1
    20    13    14    1
    21    13    23    1
    22    13    15    1
    23    15    16    1
    24    15    17    1
    25    15    27    1
    26    17    18    1
    27    17    19    1
    28    17    68    1
    29    19    20    1
    30    19    21    1
    31    19    26    1
    32    21    22    1
    33    21    23    1
    34    21    24    1
    35    24    25    1
    36    24    49    1
    37    24    50    1
    38    25    51    1
    39    26    52    1
    40    27    55    1
    41    28    56    1
    42    29    30    1
    43    30    31    1
    44    30    40    1
    45    30    32    1
    46    32    33    1
    47    32    34    1
    48    32    70    1
    49    34    35    1
    50    34    36    1
    51    34    44    1
    52    36    37    1
    53    36    38    1
    54    36    43    1
    55    38    39    1
    56    38    40    1
    57    38    41    1
    58    41    42    1
    59    41    57    1
    60    41    58    1
    61    42    59    1
    62    43    60    1
    63    44    61    1
    64    47    66    1
    65    48    66    1
    66    53    68    1
    67    54    68    1
    68    62    70    1
    69    63    70    1
    70    64    72    1
    71    65    72    1
    72    66    67    1
    73    68    69    1
    74    70    71    1
    75    72    73    1
