@<TRIPOS>MOLECULE
ZINC11592703
 57 60 0 0 0
SMALL
GASTEIGER

@<TRIPOS>ATOM
      1 C          -2.9974    1.1334    3.0033 C.3     1  UNL1       -0.0587
      2 C          -1.7866    2.0022    3.3338 C.3     1  UNL1       -0.0212
      3 H          -1.5275    1.8694    4.3868 H       1  UNL1        0.0343
      4 C          -0.5905    1.5840    2.4742 C.3     1  UNL1       -0.0432
      5 C          -0.7968    2.1570    1.0779 C.3     1  UNL1       -0.0308
      6 H          -1.8723    2.0210    0.8134 H       1  UNL1        0.0308
      7 C          -0.0103    1.4928   -0.0061 C.3     1  UNL1       -0.0292
      8 H          -0.4464    1.8162   -0.9770 H       1  UNL1        0.0310
      9 C           0.0468   -0.0384   -0.0341 C.3     1  UNL1       -0.0463
     10 C           1.1803   -0.3102   -1.0629 C.3     1  UNL1       -0.0162
     11 C           2.0345    0.9824   -1.1292 C.3     1  UNL1        0.1315
     12 C           1.4843    1.8679   -0.0021 C.3     1  UNL1        0.0091
     13 C           1.6003    3.3610   -0.1898 C.3     1  UNL1       -0.0178
     14 C           0.9045    4.0599    1.0016 C.3     1  UNL1        0.0600
     15 H           1.4563    3.8258    1.9020 H       1  UNL1        0.0596
     16 C          -0.5544    3.6668    1.1000 C.3     1  UNL1        0.0007
     17 H          -1.0196    4.0416    0.1572 H       1  UNL1        0.0340
     18 C          -1.3381    4.3414    2.1951 C.3     1  UNL1        0.0133
     19 C          -2.1174    3.4548    3.1039 C.2     1  UNL1       -0.0531
     20 C          -3.1352    3.9518    3.8282 C.2     1  UNL1       -0.0146
     21 C          -3.6371    5.3147    3.5562 C.2     1  UNL1        0.1787
     22 O          -4.4297    5.8597    4.3220 O.2     1  UNL1       -0.2879
     23 C          -3.1588    6.0077    2.3408 C.2     1  UNL1       -0.0180
     24 C          -2.1273    5.5010    1.6598 C.2     1  UNL1       -0.0701
     25 C          -0.3300    4.9972    3.1426 C.3     1  UNL1       -0.0520
     26 O           1.0045    5.4703    0.7402 O.3     1  UNL1       -0.3914
     27 C           2.1941    1.4375    1.2852 C.3     1  UNL1       -0.0562
     28 C           1.8909    1.6397   -2.4719 C.2     1  UNL1        0.1902
     29 O           1.0638    2.5043   -2.6355 O.2     1  UNL1       -0.2919
     30 C           2.7788    1.2203   -3.6150 C.3     1  UNL1        0.1052
     31 O           2.4524    1.9851   -4.7771 O.3     1  UNL1       -0.3874
     32 O           3.4072    0.6753   -0.8703 O.3     1  UNL1       -0.3804
     33 H          -2.7602    0.0885    3.2034 H       1  UNL1        0.0235
     34 H          -3.8428    1.4386    3.6198 H       1  UNL1        0.0235
     35 H          -3.2536    1.2526    1.9505 H       1  UNL1        0.0235
     36 H          -0.5324    0.4955    2.4383 H       1  UNL1        0.0274
     37 H           0.3149    1.9869    2.9325 H       1  UNL1        0.0274
     38 H           0.2922   -0.4523    0.9388 H       1  UNL1        0.0269
     39 H          -0.8992   -0.4481   -0.3946 H       1  UNL1        0.0269
     40 H           1.7931   -1.1478   -0.7337 H       1  UNL1        0.0297
     41 H           0.7503   -0.5217   -2.0423 H       1  UNL1        0.0297
     42 H           2.6491    3.6606   -0.2129 H       1  UNL1        0.0297
     43 H           1.1042    3.6845   -1.1054 H       1  UNL1        0.0297
     44 H          -3.6292    3.3304    4.5842 H       1  UNL1        0.0656
     45 H          -3.6459    6.9286    2.0013 H       1  UNL1        0.0653
     46 H          -1.8137    5.9678    0.7221 H       1  UNL1        0.0582
     47 H           0.2635    5.7276    2.5927 H       1  UNL1        0.0241
     48 H          -0.8634    5.4972    3.9511 H       1  UNL1        0.0241
     49 H           0.3275    4.2339    3.5586 H       1  UNL1        0.0241
     50 H           1.9131    5.7936    0.6683 H       1  UNL1        0.2098
     51 H           2.0201    0.3755    1.4584 H       1  UNL1        0.0236
     52 H           3.2644    1.6192    1.1880 H       1  UNL1        0.0236
     53 H           1.8029    2.0115    2.1251 H       1  UNL1        0.0236
     54 H           3.7352    1.3786   -3.3696 H       1  UNL1        0.0637
     55 H           2.6276    0.1610   -3.8228 H       1  UNL1        0.0637
     56 H           2.9860    1.7677   -5.5537 H       1  UNL1        0.2100
     57 H           3.8017    0.0672   -1.5103 H       1  UNL1        0.2108
@<TRIPOS>BOND
     1     1     2    1
     2     1    33    1
     3     1    34    1
     4     1    35    1
     5     2     3    1
     6     2    19    1
     7     2     4    1
     8     4     5    1
     9     4    36    1
    10     4    37    1
    11     5     6    1
    12     5    16    1
    13     5     7    1
    14     7     8    1
    15     7    12    1
    16     7     9    1
    17     9    10    1
    18     9    38    1
    19     9    39    1
    20    10    11    1
    21    10    40    1
    22    10    41    1
    23    11    12    1
    24    11    28    1
    25    11    32    1
    26    12    13    1
    27    12    27    1
    28    13    14    1
    29    13    42    1
    30    13    43    1
    31    14    15    1
    32    14    16    1
    33    14    26    1
    34    16    17    1
    35    16    18    1
    36    18    24    1
    37    18    19    1
    38    18    25    1
    39    19    20    2
    40    20    21    1
    41    20    44    1
    42    21    22    2
    43    21    23    1
    44    23    24    2
    45    23    45    1
    46    24    46    1
    47    25    47    1
    48    25    48    1
    49    25    49    1
    50    26    50    1
    51    27    51    1
    52    27    52    1
    53    27    53    1
    54    28    29    2
    55    28    30    1
    56    30    31    1
    57    30    54    1
    58    30    55    1
    59    31    56    1
    60    32    57    1
