@<TRIPOS>MOLECULE
ZINC11592835
 53 56 0 0 0
SMALL
GASTEIGER

@<TRIPOS>ATOM
      1 C           0.8766    5.3285   -1.4311 C.3     1  UNL1        0.0333
      2 C           0.0765    4.8327   -0.2542 C.2     1  UNL1        0.3054
      3 O          -0.5032    5.6193    0.4566 O.2     1  UNL1       -0.2511
      4 O           0.0079    3.5174    0.0045 O.3     1  UNL1       -0.4447
      5 C          -0.7863    3.1092    1.1624 C.3     1  UNL1        0.1784
      6 C          -2.2606    3.4869    0.9096 C.3     1  UNL1       -0.0005
      7 C          -2.9539    2.1853    0.4623 C.3     1  UNL1       -0.0447
      8 C          -2.1724    1.0552    1.1845 C.3     1  UNL1       -0.0278
      9 H          -2.1868    0.1316    0.5641 H       1  UNL1        0.0310
     10 C          -0.7406    1.5873    1.2875 C.3     1  UNL1        0.0223
     11 C           0.0696    1.0537    2.4384 C.3     1  UNL1       -0.0425
     12 C          -0.7119    0.9077    3.7395 C.3     1  UNL1       -0.0487
     13 C          -1.9227    0.0166    3.4562 C.3     1  UNL1       -0.0314
     14 H          -1.5899   -0.8979    2.9598 H       1  UNL1        0.0309
     15 C          -2.8551    0.7820    2.5185 C.3     1  UNL1       -0.0339
     16 H          -3.7331    0.1421    2.3299 H       1  UNL1        0.0307
     17 C          -3.3438    2.0694    3.1739 C.3     1  UNL1       -0.0460
     18 C          -4.1330    1.7372    4.4468 C.3     1  UNL1       -0.0308
     19 C          -3.2449    0.8940    5.3448 C.2     1  UNL1       -0.0629
     20 C          -3.0349    1.3000    6.5932 C.2     1  UNL1       -0.0197
     21 C          -2.1665    0.4954    7.4626 C.2     1  UNL1        0.1561
     22 O          -1.5370    0.9862    8.3722 O.2     1  UNL1       -0.2927
     23 C          -2.1089   -0.9862    7.1449 C.3     1  UNL1        0.0104
     24 C          -1.7335   -1.1302    5.6703 C.3     1  UNL1       -0.0392
     25 C          -2.6479   -0.3476    4.7529 C.3     1  UNL1       -0.0160
     26 H          -3.4813   -1.0060    4.4822 H       1  UNL1        0.0349
     27 C          -0.0127    1.0858    0.0080 C.3     1  UNL1       -0.0547
     28 C          -0.2836    3.8071    2.3518 C.1     1  UNL1       -0.0576
     29 C           0.1185    4.3653    3.3031 C.1     1  UNL1       -0.1152
     30 H           1.3238    4.4803   -1.9495 H       1  UNL1        0.0342
     31 H           0.2210    5.8676   -2.1149 H       1  UNL1        0.0342
     32 H           1.6636    5.9959   -1.0802 H       1  UNL1        0.0342
     33 H          -2.3190    4.2352    0.1170 H       1  UNL1        0.0314
     34 H          -2.7115    3.8767    1.8183 H       1  UNL1        0.0314
     35 H          -2.8754    2.0689   -0.6227 H       1  UNL1        0.0270
     36 H          -4.0053    2.1817    0.7495 H       1  UNL1        0.0270
     37 H           0.4157    0.0415    2.1525 H       1  UNL1        0.0272
     38 H           0.9684    1.6394    2.5999 H       1  UNL1        0.0272
     39 H          -0.0709    0.4367    4.4895 H       1  UNL1        0.0268
     40 H          -1.0341    1.8754    4.1121 H       1  UNL1        0.0268
     41 H          -4.0084    2.6074    2.4936 H       1  UNL1        0.0271
     42 H          -2.5048    2.7093    3.4379 H       1  UNL1        0.0271
     43 H          -5.0280    1.1735    4.1834 H       1  UNL1        0.0310
     44 H          -4.4081    2.6575    4.9580 H       1  UNL1        0.0310
     45 H          -3.4923    2.2011    6.9654 H       1  UNL1        0.0652
     46 H          -3.0020   -1.3999    7.3216 H       1  UNL1        0.0345
     47 H          -1.3556   -1.4688    7.7674 H       1  UNL1        0.0345
     48 H          -1.7904   -2.1903    5.4026 H       1  UNL1        0.0275
     49 H          -0.7035   -0.8043    5.5376 H       1  UNL1        0.0275
     50 H           0.0021   -0.0041    0.0020 H       1  UNL1        0.0237
     51 H           1.0099    1.4631    0.0003 H       1  UNL1        0.0237
     52 H          -0.5399    1.4469   -0.8751 H       1  UNL1        0.0237
     53 H           0.4781    4.8646    4.1539 H       1  UNL1        0.1229
@<TRIPOS>BOND
     1     1     2    1
     2     1    30    1
     3     1    31    1
     4     1    32    1
     5     2     3    2
     6     2     4    1
     7     4     5    1
     8     5    10    1
     9     5     6    1
    10     5    28    1
    11     6     7    1
    12     6    33    1
    13     6    34    1
    14     7     8    1
    15     7    35    1
    16     7    36    1
    17     8     9    1
    18     8    15    1
    19     8    10    1
    20    10    11    1
    21    10    27    1
    22    11    12    1
    23    11    37    1
    24    11    38    1
    25    12    13    1
    26    12    39    1
    27    12    40    1
    28    13    14    1
    29    13    25    1
    30    13    15    1
    31    15    16    1
    32    15    17    1
    33    17    18    1
    34    17    41    1
    35    17    42    1
    36    18    19    1
    37    18    43    1
    38    18    44    1
    39    19    25    1
    40    19    20    2
    41    20    21    1
    42    20    45    1
    43    21    22    2
    44    21    23    1
    45    23    24    1
    46    23    46    1
    47    23    47    1
    48    24    25    1
    49    24    48    1
    50    24    49    1
    51    25    26    1
    52    27    50    1
    53    27    51    1
    54    27    52    1
    55    28    29    3
    56    29    53    1
