@<TRIPOS>MOLECULE
ZINC03831470
 33 33 0 0 0
SMALL
GASTEIGER

@<TRIPOS>ATOM
      1 C          -2.7726    4.8999   -2.1740 C.3     1  UNL1        0.0309
      2 N          -2.0446    3.6296   -2.2239 N.am    1  UNL1       -0.1443
      3 C          -1.3948    3.1820   -1.1313 C.2     1  UNL1        0.3243
      4 O          -1.4127    3.8319   -0.1051 O.2     1  UNL1       -0.2508
      5 N          -0.7251    2.0133   -1.1772 N.am    1  UNL1       -0.2876
      6 C          -0.0187    1.5267    0.0104 C.3     1  UNL1        0.1036
      7 H          -0.5412    1.8585    0.9076 H       1  UNL1        0.0575
      8 C           1.4106    2.0775    0.0174 C.3     1  UNL1        0.1065
      9 H           1.9208    1.7563    0.9255 H       1  UNL1        0.0640
     10 C           2.1585    1.5416   -1.2073 C.3     1  UNL1        0.1112
     11 H           3.1930    1.8840   -1.1810 H       1  UNL1        0.0646
     12 C           2.1255    0.0111   -1.1863 C.3     1  UNL1        0.1129
     13 H           2.6428   -0.3515   -0.2981 H       1  UNL1        0.0647
     14 O           0.7679   -0.4344   -1.1624 O.3     1  UNL1       -0.3414
     15 C           0.0324   -0.0032   -0.0156 C.3     1  UNL1        0.1777
     16 H           0.5223   -0.3660    0.8880 H       1  UNL1        0.0928
     17 O          -1.2971   -0.5234   -0.0786 O.3     1  UNL1       -0.3654
     18 C           2.8186   -0.5314   -2.4378 C.3     1  UNL1        0.0730
     19 O           2.8898   -1.9566   -2.3629 O.3     1  UNL1       -0.3924
     20 O           1.5284    2.0165   -2.3987 O.3     1  UNL1       -0.3865
     21 O           1.3730    3.5051   -0.0324 O.3     1  UNL1       -0.3871
     22 N          -2.0257    2.9394   -3.3136 N.2     1  UNL1        0.0524
     23 O          -2.6130    3.3440   -4.3010 O.2     1  UNL1       -0.1256
     24 H          -2.1056    5.7125   -2.4620 H       1  UNL1        0.0450
     25 H          -3.6171    4.8620   -2.8621 H       1  UNL1        0.0450
     26 H          -3.1368    5.0705   -1.1609 H       1  UNL1        0.0450
     27 H          -0.7108    1.4943   -1.9966 H       1  UNL1        0.1509
     28 H          -1.3410   -1.4892   -0.0981 H       1  UNL1        0.2125
     29 H           2.2506   -0.2420   -3.3220 H       1  UNL1        0.0584
     30 H           3.8260   -0.1201   -2.5024 H       1  UNL1        0.0584
     31 H           3.3183   -2.3696   -3.1250 H       1  UNL1        0.2095
     32 H           1.9487    1.7113   -3.2144 H       1  UNL1        0.2100
     33 H           2.2457    3.9218   -0.0309 H       1  UNL1        0.2100
@<TRIPOS>BOND
     1     1     2    1
     2     1    24    1
     3     1    25    1
     4     1    26    1
     5     2     3   am
     6     2    22    1
     7     3     4    2
     8     3     5   am
     9     5     6    1
    10     5    27    1
    11     6     7    1
    12     6    15    1
    13     6     8    1
    14     8     9    1
    15     8    10    1
    16     8    21    1
    17    10    11    1
    18    10    12    1
    19    10    20    1
    20    12    13    1
    21    12    14    1
    22    12    18    1
    23    14    15    1
    24    15    16    1
    25    15    17    1
    26    17    28    1
    27    18    19    1
    28    18    29    1
    29    18    30    1
    30    19    31    1
    31    20    32    1
    32    21    33    1
    33    22    23    2
