@<TRIPOS>MOLECULE
ZINC03831093
 70 73 0 0 0
SMALL
GASTEIGER

@<TRIPOS>ATOM
      1 C          -1.1313    9.3662   -3.2285 C.3     1  UNL1       -0.0552
      2 C          -0.4073    9.2588   -1.8850 C.3     1  UNL1        0.0421
      3 C          -0.3663    7.8164   -1.4503 C.2     1  UNL1        0.3078
      4 O          -0.8651    6.9620   -2.1439 O.2     1  UNL1       -0.2508
      5 O           0.2242    7.4809   -0.2925 O.3     1  UNL1       -0.4497
      6 C           0.1151    6.0947    0.1257 C.3     1  UNL1        0.1796
      7 C           0.7989    5.1728   -0.9047 C.3     1  UNL1       -0.0048
      8 C           1.9278    4.4359   -0.1509 C.3     1  UNL1       -0.0453
      9 C           1.4641    4.4658    1.3559 C.3     1  UNL1       -0.0281
     10 H           2.2722    4.3025    2.0689 H       1  UNL1        0.0310
     11 C           0.8675    5.8794    1.4455 C.3     1  UNL1        0.0204
     12 C          -0.0199    6.0510    2.6573 C.3     1  UNL1       -0.0168
     13 C          -1.1094    4.9811    2.6930 C.3     1  UNL1        0.0600
     14 H          -1.7274    5.0555    1.7982 H       1  UNL1        0.0596
     15 C          -0.4421    3.6005    2.7442 C.3     1  UNL1        0.0007
     16 H           0.2136    3.5401    3.6129 H       1  UNL1        0.0340
     17 C           0.3717    3.3977    1.4685 C.3     1  UNL1       -0.0308
     18 H          -0.2899    3.4679    0.6051 H       1  UNL1        0.0308
     19 C           1.0409    2.0202    1.4810 C.3     1  UNL1       -0.0432
     20 C          -0.0269    0.9226    1.4766 C.3     1  UNL1       -0.0212
     21 H           0.4474   -0.0538    1.5759 H       1  UNL1        0.0343
     22 C          -0.9512    1.1665    2.6549 C.2     1  UNL1       -0.0531
     23 C          -1.1600    0.1902    3.5448 C.2     1  UNL1       -0.0146
     24 C          -2.0207    0.4055    4.7184 C.2     1  UNL1        0.1787
     25 O          -2.2588   -0.5043    5.4906 O.2     1  UNL1       -0.2879
     26 C          -2.5871    1.7471    4.9378 C.2     1  UNL1       -0.0180
     27 C          -2.3552    2.7125    4.0622 C.2     1  UNL1       -0.0701
     28 C          -1.5437    2.5377    2.8246 C.3     1  UNL1        0.0133
     29 C          -2.4720    2.7394    1.6252 C.3     1  UNL1       -0.0520
     30 C          -0.8236    0.9807    0.1717 C.3     1  UNL1       -0.0587
     31 O          -1.9226    5.1637    3.8537 O.3     1  UNL1       -0.3914
     32 C           2.0232    6.8786    1.5278 C.3     1  UNL1       -0.0551
     33 C          -1.3340    5.7132    0.2854 C.2     1  UNL1        0.2142
     34 O          -1.7126    4.6205   -0.0623 O.2     1  UNL1       -0.2895
     35 C          -2.3107    6.6955    0.8790 C.3     1  UNL1        0.1542
     36 O          -3.6324    6.0960    0.9251 O.3     1  UNL1       -0.4570
     37 C          -4.6244    6.8458    1.4307 C.2     1  UNL1        0.3043
     38 O          -4.3958    7.9659    1.8217 O.2     1  UNL1       -0.2512
     39 C          -6.0230    6.2904    1.5105 C.3     1  UNL1        0.0332
     40 H          -1.1610   10.4094   -3.5429 H       1  UNL1        0.0235
     41 H          -0.6002    8.7765   -3.9756 H       1  UNL1        0.0235
     42 H          -2.1487    8.9891   -3.1241 H       1  UNL1        0.0235
     43 H          -0.9384    9.8485   -1.1378 H       1  UNL1        0.0375
     44 H           0.6101    9.6358   -1.9894 H       1  UNL1        0.0375
     45 H           0.0804    4.4537   -1.2978 H       1  UNL1        0.0308
     46 H           1.2167    5.7662   -1.7180 H       1  UNL1        0.0308
     47 H           2.0168    3.4086   -0.5041 H       1  UNL1        0.0270
     48 H           2.8744    4.9634   -0.2685 H       1  UNL1        0.0270
     49 H          -0.4860    7.0357    2.6232 H       1  UNL1        0.0297
     50 H           0.5871    5.9741    3.5594 H       1  UNL1        0.0297
     51 H           1.6553    1.9241    2.3762 H       1  UNL1        0.0274
     52 H           1.6703    1.9166    0.5970 H       1  UNL1        0.0274
     53 H          -0.7072   -0.7768    3.3824 H       1  UNL1        0.0656
     54 H          -3.1904    1.9432    5.8119 H       1  UNL1        0.0653
     55 H          -2.7798    3.6863    4.2567 H       1  UNL1        0.0582
     56 H          -1.8806    3.0024    0.7482 H       1  UNL1        0.0241
     57 H          -3.0199    1.8174    1.4307 H       1  UNL1        0.0241
     58 H          -3.1769    3.5420    1.8422 H       1  UNL1        0.0241
     59 H          -0.2615    0.4846   -0.6196 H       1  UNL1        0.0235
     60 H          -1.7809    0.4774    0.3077 H       1  UNL1        0.0235
     61 H          -0.9960    2.0214   -0.1028 H       1  UNL1        0.0235
     62 H          -2.3753    6.0176    3.8864 H       1  UNL1        0.2098
     63 H           2.6069    6.6857    2.4279 H       1  UNL1        0.0237
     64 H           2.6611    6.7695    0.6508 H       1  UNL1        0.0237
     65 H           1.6249    7.8926    1.5635 H       1  UNL1        0.0237
     66 H          -2.0208    6.9352    1.8056 H       1  UNL1        0.0780
     67 H          -2.3409    7.5947    0.2637 H       1  UNL1        0.0780
     68 H          -6.0241    5.3968    2.1346 H       1  UNL1        0.0342
     69 H          -6.6865    7.0380    1.9453 H       1  UNL1        0.0342
     70 H          -6.3702    6.0348    0.5094 H       1  UNL1        0.0342
@<TRIPOS>BOND
     1     1     2    1
     2     1    40    1
     3     1    41    1
     4     1    42    1
     5     2     3    1
     6     2    43    1
     7     2    44    1
     8     3     4    2
     9     3     5    1
    10     5     6    1
    11     6    11    1
    12     6     7    1
    13     6    33    1
    14     7     8    1
    15     7    45    1
    16     7    46    1
    17     8     9    1
    18     8    47    1
    19     8    48    1
    20     9    10    1
    21     9    17    1
    22     9    11    1
    23    11    12    1
    24    11    32    1
    25    12    13    1
    26    12    49    1
    27    12    50    1
    28    13    14    1
    29    13    15    1
    30    13    31    1
    31    15    16    1
    32    15    28    1
    33    15    17    1
    34    17    18    1
    35    17    19    1
    36    19    20    1
    37    19    51    1
    38    19    52    1
    39    20    21    1
    40    20    22    1
    41    20    30    1
    42    22    28    1
    43    22    23    2
    44    23    24    1
    45    23    53    1
    46    24    25    2
    47    24    26    1
    48    26    27    2
    49    26    54    1
    50    27    28    1
    51    27    55    1
    52    28    29    1
    53    29    56    1
    54    29    57    1
    55    29    58    1
    56    30    59    1
    57    30    60    1
    58    30    61    1
    59    31    62    1
    60    32    63    1
    61    32    64    1
    62    32    65    1
    63    33    34    2
    64    33    35    1
    65    35    36    1
    66    35    66    1
    67    35    67    1
    68    36    37    1
    69    37    38    2
    70    37    39    1
    71    39    68    1
    72    39    69    1
    73    39    70    1
