@<TRIPOS>MOLECULE
ZINC00002159
 31 32 0 0 0
SMALL
GASTEIGER

@<TRIPOS>ATOM
      1 C5M        -5.8115   -1.4560   -0.5441 C.3     1    T1       -0.0332
      2 C5         -4.9544   -0.4576   -1.2786 C.ar    1    T1        0.0302
      3 C6         -4.0133    0.2519   -0.6197 C.ar    1    T1        0.0199
      4 N1         -3.2434    1.1541   -1.3021 N.ar    1    T1       -0.2737
      5 C2         -3.4188    1.3445   -2.6223 C.ar    1    T1        0.3313
      6 O2         -2.7268    2.1546   -3.2082 O.2     1    T1       -0.2464
      7 N3         -4.3460    0.6471   -3.3048 N.ar    1    T1       -0.2747
      8 H3         -4.4576    0.7958   -4.2874 H       1    T1        0.1734
      9 C4         -5.1249   -0.2512   -2.6688 C.ar    1    T1        0.2568
     10 O4         -5.9674   -0.8790   -3.2845 O.2     1    T1       -0.2674
     11 C1*        -2.2226    1.9242   -0.5872 C.3     1    T1        0.1422
     12 H1*        -2.4427    2.9892   -0.6610 H       1    T1        0.0840
     13 C2*        -0.8325    1.6338   -1.1855 C.3     1    T1        0.0214
     14 C3*        -0.0127    1.0858    0.0080 C.3     1    T1        0.0876
     15 H3*         0.0021   -0.0041    0.0020 H       1    T1        0.0621
     16 C4*        -0.8104    1.6215    1.2242 C.3     1    T1        0.1100
     17 H4*        -0.5453    2.6584    1.4306 H       1    T1        0.0646
     18 O4*        -2.1859    1.5242    0.7930 O.3     1    T1       -0.3483
     19 C5*        -0.5676    0.7464    2.4555 C.3     1    T1        0.0729
     20 O5*        -1.2190    1.3260    3.5877 O.3     1    T1       -0.3924
     21 O3*         1.3161    1.6115   -0.0019 O.3     1    T1       -0.3890
     22 H5M1       -6.7088   -0.9610   -0.1728 H       1    T1        0.0280
     23 H5M2       -6.0948   -2.2605   -1.2228 H       1    T1        0.0280
     24 H5M3       -5.2508   -1.8688    0.2946 H       1    T1        0.0280
     25 H6         -3.8686    0.1077    0.4408 H       1    T1        0.0816
     26 H2*1       -0.3830    2.5499   -1.5684 H       1    T1        0.0335
     27 H2*2       -0.9054    0.8849   -1.9741 H       1    T1        0.0335
     28 H5*1       -0.9685   -0.2513    2.2770 H       1    T1        0.0584
     29 H5*2        0.5032    0.6787    2.6477 H       1    T1        0.0584
     30 H5*        -1.1072    0.8230    4.4060 H       1    T1        0.2095
     31 H3*         1.8404    1.3409   -0.7679 H       1    T1        0.2099
@<TRIPOS>BOND
     1     1     2    1
     2     1    22    1
     3     1    23    1
     4     1    24    1
     5     2     9   ar
     6     2     3   ar
     7     3     4   ar
     8     3    25    1
     9     4     5   ar
    10     4    11    1
    11     5     6    2
    12     5     7   ar
    13     7     8    1
    14     7     9   ar
    15     9    10    2
    16    11    12    1
    17    11    18    1
    18    11    13    1
    19    13    14    1
    20    13    26    1
    21    13    27    1
    22    14    15    1
    23    14    16    1
    24    14    21    1
    25    16    17    1
    26    16    18    1
    27    16    19    1
    28    19    20    1
    29    19    28    1
    30    19    29    1
    31    20    30    1
    32    21    31    1
