@<TRIPOS>MOLECULE
ZINC06507068
 26 26 0 0 0
SMALL
GASTEIGER

@<TRIPOS>ATOM
      1 C          -1.3453    5.4813   -2.0230 C.3     1  UNL1       -0.0419
      2 C           0.1276    7.2963   -1.3914 C.3     1  UNL1        0.0307
      3 C           0.3405    7.7220   -2.7844 C.1     1  UNL1       -0.0562
      4 C           0.5102    8.0615   -3.8953 C.1     1  UNL1       -0.1140
      5 C          -0.0705    5.3471    0.0311 C.3     1  UNL1       -0.0053
      6 C          -0.0501    3.8402    0.0228 C.ar    1  UNL1       -0.0029
      7 C           1.1563    3.1654    0.0076 C.ar    1  UNL1       -0.0535
      8 C           1.1750    1.7832    0.0004 C.ar    1  UNL1       -0.0613
      9 C          -0.0126    1.0758    0.0080 C.ar    1  UNL1       -0.0617
     10 C          -1.2190    1.7506    0.0173 C.ar    1  UNL1       -0.0613
     11 C          -1.2377    3.1328    0.0299 C.ar    1  UNL1       -0.0535
     12 H          -2.1858    5.9170   -1.4828 H       1  UNL1        0.0778
     13 H          -1.3336    5.8615   -3.0445 H       1  UNL1        0.0778
     14 H          -1.4477    4.3963   -2.0403 H       1  UNL1        0.0778
     15 H          -0.7458    7.8063   -0.9851 H       1  UNL1        0.0959
     16 H           1.0053    7.5487   -0.7963 H       1  UNL1        0.0959
     17 H           0.6620    8.3651   -4.8889 H       1  UNL1        0.1230
     18 H          -0.9604    5.6955    0.5554 H       1  UNL1        0.0867
     19 H           0.8193    5.7197    0.5385 H       1  UNL1        0.0867
     20 H           2.0842    3.7181    0.0017 H       1  UNL1        0.0622
     21 H           2.1175    1.2560   -0.0115 H       1  UNL1        0.0618
     22 H           0.0021   -0.0041    0.0020 H       1  UNL1        0.0618
     23 H          -2.1469    1.1980    0.0188 H       1  UNL1        0.0618
     24 H          -2.1802    3.6600    0.0414 H       1  UNL1        0.0622
     25 N          -0.0688    5.8316   -1.3653 N.4     1  UNL1        0.2452
     26 H           0.7023    5.3826   -1.8732 H       1  UNL1        0.2044
@<TRIPOS>UNITY_ATOM_ATTR
25 1
charge 1
@<TRIPOS>BOND
     1     1    12    1
     2     1    13    1
     3     1    14    1
     4     1    25    1
     5     2     3    1
     6     2    15    1
     7     2    16    1
     8     2    25    1
     9     3     4    3
    10     4    17    1
    11     5     6    1
    12     5    18    1
    13     5    19    1
    14     5    25    1
    15     6    11   ar
    16     6     7   ar
    17     7     8   ar
    18     7    20    1
    19     8     9   ar
    20     8    21    1
    21     9    10   ar
    22     9    22    1
    23    10    11   ar
    24    10    23    1
    25    11    24    1
    26    25    26    1
