@<TRIPOS>MOLECULE
ZINC03830651
 69 74 0 0 0
SMALL
GASTEIGER

@<TRIPOS>ATOM
      1 C           0.0659    4.3084   -2.5273 C.3     1  UNL1       -0.0030
      2 C           1.3239    3.4951   -2.3623 C.2     1  UNL1        0.1650
      3 O           1.7599    2.8617   -3.2934 O.2     1  UNL1       -0.2945
      4 C           2.0366    3.4725   -1.0377 C.3     1  UNL1        0.1617
      5 C           3.5730    3.2736   -1.2162 C.3     1  UNL1        0.0990
      6 H           3.8711    3.3524   -2.2594 H       1  UNL1        0.0631
      7 C           3.9093    1.8811   -0.6277 C.3     1  UNL1       -0.0196
      8 C           2.5428    1.1802   -0.5981 C.3     1  UNL1       -0.0269
      9 H           2.2780    0.9166   -1.6399 H       1  UNL1        0.0311
     10 C           1.6058    2.3088   -0.1269 C.3     1  UNL1        0.0097
     11 C           0.1566    1.8963   -0.1829 C.3     1  UNL1       -0.0439
     12 C           0.0402    0.3552   -0.1851 C.3     1  UNL1       -0.0486
     13 C           1.0393   -0.1907    0.8195 C.3     1  UNL1       -0.0288
     14 H           0.9817    0.4495    1.7198 H       1  UNL1        0.0312
     15 C           2.4509   -0.0619    0.2309 C.3     1  UNL1       -0.0336
     16 H           2.6186   -0.8922   -0.4775 H       1  UNL1        0.0307
     17 C           3.4843   -0.2418    1.3279 C.3     1  UNL1       -0.0459
     18 C           3.3586   -1.6866    1.8521 C.3     1  UNL1       -0.0305
     19 C           1.9201   -1.9156    2.2854 C.2     1  UNL1       -0.0601
     20 C           1.7141   -2.3763    3.5188 C.2     1  UNL1       -0.0194
     21 C           0.3355   -2.5698    3.9869 C.2     1  UNL1        0.1561
     22 O           0.0401   -3.4026    4.8148 O.2     1  UNL1       -0.2927
     23 C          -0.6912   -1.6435    3.3589 C.3     1  UNL1        0.0107
     24 C          -0.5885   -1.8110    1.8458 C.3     1  UNL1       -0.0367
     25 C           0.8117   -1.6070    1.3126 C.3     1  UNL1       -0.0072
     26 C           0.9480   -2.5768    0.1391 C.3     1  UNL1       -0.0556
     27 C           1.9466    2.7285    1.3155 C.3     1  UNL1       -0.0562
     28 O           4.1693    4.2925   -0.3971 O.3     1  UNL1       -0.3383
     29 C           3.1920    5.3499   -0.3310 C.3     1  UNL1        0.1952
     30 O           1.9077    4.7043   -0.3082 O.3     1  UNL1       -0.3277
     31 C           3.3981    6.1644    0.9553 C.3     1  UNL1       -0.0059
     32 C           3.3176    6.2592   -1.5262 C.ar    1  UNL1        0.0108
     33 C           2.2151    6.9572   -1.9824 C.ar    1  UNL1       -0.0535
     34 C           2.3315    7.7951   -3.0758 C.ar    1  UNL1       -0.0613
     35 C           3.5478    7.9268   -3.7193 C.ar    1  UNL1       -0.0617
     36 C           4.6490    7.2248   -3.2662 C.ar    1  UNL1       -0.0613
     37 C           4.5340    6.3910   -2.1696 C.ar    1  UNL1       -0.0535
     38 H          -0.1313    4.7938   -1.6755 H       1  UNL1        0.0307
     39 H           0.2025    5.0295   -3.3332 H       1  UNL1        0.0307
     40 H          -0.7655    3.6464   -2.7691 H       1  UNL1        0.0307
     41 H           4.3351    1.9682    0.3689 H       1  UNL1        0.0294
     42 H           4.5955    1.3446   -1.2860 H       1  UNL1        0.0294
     43 H          -0.3743    2.2980   -1.0377 H       1  UNL1        0.0272
     44 H          -0.3484    2.2691    0.7242 H       1  UNL1        0.0272
     45 H          -0.9741    0.0765    0.0889 H       1  UNL1        0.0268
     46 H           0.2602   -0.0177   -1.1867 H       1  UNL1        0.0268
     47 H           4.4863   -0.0865    0.9327 H       1  UNL1        0.0271
     48 H           3.2904    0.4511    2.1443 H       1  UNL1        0.0271
     49 H           3.6367   -2.3889    1.0740 H       1  UNL1        0.0310
     50 H           4.0156   -1.8121    2.7151 H       1  UNL1        0.0310
     51 H           2.5498   -2.6053    4.1603 H       1  UNL1        0.0652
     52 H          -0.4949   -0.6995    3.6242 H       1  UNL1        0.0345
     53 H          -1.6894   -1.9160    3.6982 H       1  UNL1        0.0345
     54 H          -1.2601   -1.1014    1.3683 H       1  UNL1        0.0278
     55 H          -0.9081   -2.8209    1.5844 H       1  UNL1        0.0278
     56 H           1.9482   -2.4942   -0.2862 H       1  UNL1        0.0238
     57 H           0.7852   -3.5961    0.4893 H       1  UNL1        0.0238
     58 H           0.2079   -2.3317   -0.6226 H       1  UNL1        0.0238
     59 H           1.8874    1.8593    1.9705 H       1  UNL1        0.0236
     60 H           2.9563    3.1381    1.3458 H       1  UNL1        0.0236
     61 H           1.2374    3.4852    1.6509 H       1  UNL1        0.0236
     62 H           3.3476    5.5001    1.8180 H       1  UNL1        0.0285
     63 H           4.3742    6.6487    0.9262 H       1  UNL1        0.0285
     64 H           2.6187    6.9224    1.0342 H       1  UNL1        0.0285
     65 H           1.2638    6.8509   -1.4824 H       1  UNL1        0.0622
     66 H           1.4710    8.3432   -3.4300 H       1  UNL1        0.0618
     67 H           3.6376    8.5780   -4.5762 H       1  UNL1        0.0618
     68 H           5.5993    7.3274   -3.7691 H       1  UNL1        0.0618
     69 H           5.3943    5.8423   -1.8158 H       1  UNL1        0.0622
@<TRIPOS>BOND
     1     1     2    1
     2     1    38    1
     3     1    39    1
     4     1    40    1
     5     2     3    2
     6     2     4    1
     7     4    10    1
     8     4    30    1
     9     4     5    1
    10     5     6    1
    11     5     7    1
    12     5    28    1
    13     7     8    1
    14     7    41    1
    15     7    42    1
    16     8     9    1
    17     8    15    1
    18     8    10    1
    19    10    11    1
    20    10    27    1
    21    11    12    1
    22    11    43    1
    23    11    44    1
    24    12    13    1
    25    12    45    1
    26    12    46    1
    27    13    14    1
    28    13    25    1
    29    13    15    1
    30    15    16    1
    31    15    17    1
    32    17    18    1
    33    17    47    1
    34    17    48    1
    35    18    19    1
    36    18    49    1
    37    18    50    1
    38    19    25    1
    39    19    20    2
    40    20    21    1
    41    20    51    1
    42    21    22    2
    43    21    23    1
    44    23    24    1
    45    23    52    1
    46    23    53    1
    47    24    25    1
    48    24    54    1
    49    24    55    1
    50    25    26    1
    51    26    56    1
    52    26    57    1
    53    26    58    1
    54    27    59    1
    55    27    60    1
    56    27    61    1
    57    28    29    1
    58    29    30    1
    59    29    31    1
    60    29    32    1
    61    31    62    1
    62    31    63    1
    63    31    64    1
    64    32    37   ar
    65    32    33   ar
    66    33    34   ar
    67    33    65    1
    68    34    35   ar
    69    34    66    1
    70    35    36   ar
    71    35    67    1
    72    36    37   ar
    73    36    68    1
    74    37    69    1
