@<TRIPOS>MOLECULE
ZINC03830638
 62 65 0 0 0
SMALL
GASTEIGER

@<TRIPOS>ATOM
      1 C          -3.7579   -0.1598    0.7994 C.3     1  UNL1       -0.0621
      2 C          -2.3500    0.4379    0.7617 C.3     1  UNL1       -0.0398
      3 H          -2.3877    1.4282    0.3079 H       1  UNL1        0.0301
      4 C          -1.8053    0.5504    2.1870 C.3     1  UNL1       -0.0451
      5 C          -2.7019    1.4833    3.0035 C.3     1  UNL1       -0.0130
      6 C          -2.1655    1.5941    4.4074 C.2     1  UNL1        0.0418
      7 O          -1.1683    0.9890    4.7226 O.co2   1  UNL1       -0.5498
      8 C          -1.4348   -0.4661   -0.0635 C.3     1  UNL1       -0.0261
      9 H          -1.3985   -1.4685    0.3520 H       1  UNL1        0.0313
     10 C          -1.8974   -0.4997   -1.5421 C.3     1  UNL1       -0.0488
     11 C          -0.6456   -0.1650   -2.4040 C.3     1  UNL1       -0.0484
     12 C           0.5079   -0.4580   -1.4438 C.3     1  UNL1       -0.0189
     13 H           0.5296   -1.5629   -1.3190 H       1  UNL1        0.0317
     14 C          -0.0180    0.1291   -0.1165 C.3     1  UNL1        0.0327
     15 C           0.8881   -0.2836    1.0002 C.2     1  UNL1        0.1400
     16 O           0.4792   -0.4657    2.1319 O.2     1  UNL1       -0.2968
     17 C           2.3632   -0.4666    0.6450 C.3     1  UNL1        0.0104
     18 C           2.6750    0.4207   -0.5547 C.3     1  UNL1       -0.0189
     19 H           2.3671    1.4380   -0.3157 H       1  UNL1        0.0317
     20 C           1.8915   -0.0383   -1.7852 C.3     1  UNL1        0.0249
     21 H           2.3955   -0.8196   -2.1534 H       1  UNL1        0.0383
     22 C           2.0274    1.0122   -2.8576 C.2     1  UNL1        0.1373
     23 O           1.1240    1.3571   -3.5742 O.2     1  UNL1       -0.2971
     24 C           3.4218    1.6225   -2.9942 C.3     1  UNL1        0.0098
     25 C           4.3878    0.6240   -2.3626 C.3     1  UNL1       -0.0220
     26 H           4.1754   -0.3625   -2.8049 H       1  UNL1        0.0314
     27 C           4.1607    0.5100   -0.8586 C.3     1  UNL1       -0.0242
     28 C           4.9455   -0.6735   -0.3072 C.3     1  UNL1       -0.0404
     29 C           6.4455   -0.4634   -0.5455 C.3     1  UNL1        0.0063
     30 C           6.7033   -0.1010   -1.9872 C.2     1  UNL1        0.1337
     31 O           7.5905   -0.6466   -2.6034 O.2     1  UNL1       -0.2974
     32 C           5.8461    0.9509   -2.6618 C.3     1  UNL1        0.0095
     33 C           4.6644    1.7839   -0.1773 C.3     1  UNL1       -0.0590
     34 C          -0.1519    1.6515   -0.1749 C.3     1  UNL1       -0.0523
     35 H          -4.4106    0.4849    1.3880 H       1  UNL1        0.0233
     36 H          -4.1459   -0.2400   -0.2160 H       1  UNL1        0.0233
     37 H          -3.7201   -1.1502    1.2532 H       1  UNL1        0.0233
     38 H          -1.7910   -0.4365    2.6495 H       1  UNL1        0.0271
     39 H          -0.7927    0.9528    2.1583 H       1  UNL1        0.0271
     40 H          -2.7162    2.4702    2.5410 H       1  UNL1        0.0325
     41 H          -3.7145    1.0808    3.0322 H       1  UNL1        0.0325
     42 H          -2.6733    0.2482   -1.7070 H       1  UNL1        0.0268
     43 H          -2.2722   -1.4901   -1.7969 H       1  UNL1        0.0268
     44 H          -0.6634    0.8761   -2.7136 H       1  UNL1        0.0268
     45 H          -0.5964   -0.8224   -3.2744 H       1  UNL1        0.0268
     46 H           2.9294   -0.2007    1.4252 H       1  UNL1        0.0345
     47 H           2.5560   -1.5133    0.3995 H       1  UNL1        0.0345
     48 H           3.6327    1.7586   -3.9622 H       1  UNL1        0.0345
     49 H           3.4587    2.5813   -2.4861 H       1  UNL1        0.0345
     50 H           4.6202   -1.5928   -0.8012 H       1  UNL1        0.0275
     51 H           4.7613   -0.7680    0.7671 H       1  UNL1        0.0275
     52 H           6.9365   -1.3117   -0.3474 H       1  UNL1        0.0342
     53 H           6.8387    0.3088    0.1120 H       1  UNL1        0.0342
     54 H           5.9983    0.9217   -3.6497 H       1  UNL1        0.0345
     55 H           6.1158    1.9444   -2.3205 H       1  UNL1        0.0345
     56 H           4.4888    1.7155    0.8963 H       1  UNL1        0.0235
     57 H           5.7322    1.8980   -0.3642 H       1  UNL1        0.0235
     58 H           4.1312    2.6457   -0.5785 H       1  UNL1        0.0235
     59 H           0.8371    2.0999   -0.2687 H       1  UNL1        0.0239
     60 H          -0.7602    1.9300   -1.0355 H       1  UNL1        0.0239
     61 H          -0.6282    2.0097    0.7378 H       1  UNL1        0.0239
     62 O          -2.7954    2.3651    5.3077 O.co2   1  UNL1       -0.5498
@<TRIPOS>UNITY_ATOM_ATTR
62 1
charge -1
@<TRIPOS>BOND
     1     1     2    1
     2     1    35    1
     3     1    36    1
     4     1    37    1
     5     2     3    1
     6     2     4    1
     7     2     8    1
     8     4     5    1
     9     4    38    1
    10     4    39    1
    11     5     6    1
    12     5    40    1
    13     5    41    1
    14     6     7   ar
    15     6    62   ar
    16     8     9    1
    17     8    14    1
    18     8    10    1
    19    10    11    1
    20    10    42    1
    21    10    43    1
    22    11    12    1
    23    11    44    1
    24    11    45    1
    25    12    13    1
    26    12    20    1
    27    12    14    1
    28    14    15    1
    29    14    34    1
    30    15    16    2
    31    15    17    1
    32    17    18    1
    33    17    46    1
    34    17    47    1
    35    18    19    1
    36    18    27    1
    37    18    20    1
    38    20    21    1
    39    20    22    1
    40    22    23    2
    41    22    24    1
    42    24    25    1
    43    24    48    1
    44    24    49    1
    45    25    26    1
    46    25    32    1
    47    25    27    1
    48    27    28    1
    49    27    33    1
    50    28    29    1
    51    28    50    1
    52    28    51    1
    53    29    30    1
    54    29    52    1
    55    29    53    1
    56    30    31    2
    57    30    32    1
    58    32    54    1
    59    32    55    1
    60    33    56    1
    61    33    57    1
    62    33    58    1
    63    34    59    1
    64    34    60    1
    65    34    61    1
