@<TRIPOS>MOLECULE
ZINC11616210
 60 63 0 0 0
SMALL
GASTEIGER

@<TRIPOS>ATOM
      1 C          -0.0127    1.0858    0.0080 C.3     1  UNL1        0.0333
      2 C          -0.7181    1.5718    1.2479 C.2     1  UNL1        0.3045
      3 O          -1.7108    2.2536    1.1502 O.2     1  UNL1       -0.2511
      4 O          -0.2435    1.2473    2.4608 O.3     1  UNL1       -0.4574
      5 C          -0.9744    1.7507    3.6116 C.3     1  UNL1        0.1215
      6 H          -2.0293    1.8518    3.3569 H       1  UNL1        0.0779
      7 C          -0.8217    0.7725    4.7809 C.3     1  UNL1       -0.0114
      8 C          -1.4865    1.3982    6.0125 C.3     1  UNL1       -0.0426
      9 C          -0.7263    2.6501    6.4213 C.3     1  UNL1       -0.0166
     10 H           0.2141    2.2818    6.8591 H       1  UNL1        0.0348
     11 C          -1.4029    3.4160    7.5207 C.3     1  UNL1       -0.0314
     12 H          -1.0163    2.9279    8.4349 H       1  UNL1        0.0309
     13 C          -2.9077    3.1978    7.5974 C.3     1  UNL1       -0.0487
     14 C          -3.4085    3.4965    9.0220 C.3     1  UNL1       -0.0425
     15 C          -2.7519    4.7524    9.5352 C.3     1  UNL1        0.0223
     16 C          -2.2028    5.5900    8.3613 C.3     1  UNL1       -0.0278
     17 H          -2.9884    5.7841    7.6198 H       1  UNL1        0.0310
     18 C          -1.0350    4.8727    7.6898 C.3     1  UNL1       -0.0339
     19 H          -0.1510    4.9462    8.3267 H       1  UNL1        0.0307
     20 C          -0.7337    5.6040    6.3885 C.3     1  UNL1       -0.0460
     21 C           0.2710    4.8485    5.5294 C.3     1  UNL1       -0.0311
     22 C          -0.3145    3.4762    5.2480 C.2     1  UNL1       -0.0667
     23 C          -0.4218    3.0891    4.0098 C.2     1  UNL1       -0.0445
     24 C          -1.8027    6.9054    9.0492 C.3     1  UNL1       -0.0447
     25 C          -2.8447    7.0861   10.1810 C.3     1  UNL1       -0.0005
     26 C          -3.6592    5.7671   10.2442 C.3     1  UNL1        0.1784
     27 C          -4.9410    5.9489    9.5535 C.1     1  UNL1       -0.0576
     28 C          -5.9665    6.0944    9.0009 C.1     1  UNL1       -0.1152
     29 O          -3.8687    5.3745   11.6236 O.3     1  UNL1       -0.4447
     30 C          -4.6466    6.1717   12.3726 C.2     1  UNL1        0.3054
     31 O          -5.1360    7.1652   11.8896 O.2     1  UNL1       -0.2511
     32 C          -4.9096    5.8275   13.8161 C.3     1  UNL1        0.0333
     33 C          -1.6247    4.3847   10.5133 C.3     1  UNL1       -0.0547
     34 H           0.0021   -0.0041    0.0020 H       1  UNL1        0.0342
     35 H           1.0099    1.4631    0.0003 H       1  UNL1        0.0342
     36 H          -0.5399    1.4469   -0.8751 H       1  UNL1        0.0342
     37 H          -1.3074   -0.1702    4.5408 H       1  UNL1        0.0304
     38 H           0.2357    0.6063    4.9836 H       1  UNL1        0.0304
     39 H          -1.4750    0.6818    6.8299 H       1  UNL1        0.0272
     40 H          -2.5121    1.6597    5.7578 H       1  UNL1        0.0272
     41 H          -3.4149    3.8539    6.8877 H       1  UNL1        0.0268
     42 H          -3.1491    2.1602    7.3567 H       1  UNL1        0.0268
     43 H          -4.4928    3.5537    9.0228 H       1  UNL1        0.0272
     44 H          -3.1225    2.6530    9.6711 H       1  UNL1        0.0272
     45 H          -0.3287    6.5887    6.6264 H       1  UNL1        0.0271
     46 H          -1.6611    5.7287    5.8303 H       1  UNL1        0.0271
     47 H           1.2133    4.7441    6.0671 H       1  UNL1        0.0310
     48 H           0.4358    5.3806    4.5932 H       1  UNL1        0.0310
     49 H          -0.0993    3.7647    3.2301 H       1  UNL1        0.0608
     50 H          -1.8658    7.7369    8.3399 H       1  UNL1        0.0270
     51 H          -0.7934    6.8429    9.4539 H       1  UNL1        0.0270
     52 H          -3.5076    7.9196    9.9529 H       1  UNL1        0.0314
     53 H          -2.3416    7.2571   11.1331 H       1  UNL1        0.0314
     54 H          -6.8838    6.2245    8.5066 H       1  UNL1        0.1229
     55 H          -3.9653    5.7948   14.3596 H       1  UNL1        0.0342
     56 H          -5.5572    6.5848   14.2580 H       1  UNL1        0.0342
     57 H          -5.3964    4.8540   13.8746 H       1  UNL1        0.0342
     58 H          -0.8768    3.7835    9.9963 H       1  UNL1        0.0237
     59 H          -1.1605    5.2954   10.8917 H       1  UNL1        0.0237
     60 H          -2.0374    3.8144   11.3454 H       1  UNL1        0.0237
@<TRIPOS>BOND
     1     1     2    1
     2     1    34    1
     3     1    35    1
     4     1    36    1
     5     2     3    2
     6     2     4    1
     7     4     5    1
     8     5     6    1
     9     5    23    1
    10     5     7    1
    11     7     8    1
    12     7    37    1
    13     7    38    1
    14     8     9    1
    15     8    39    1
    16     8    40    1
    17     9    10    1
    18     9    22    1
    19     9    11    1
    20    11    12    1
    21    11    18    1
    22    11    13    1
    23    13    14    1
    24    13    41    1
    25    13    42    1
    26    14    15    1
    27    14    43    1
    28    14    44    1
    29    15    26    1
    30    15    16    1
    31    15    33    1
    32    16    17    1
    33    16    18    1
    34    16    24    1
    35    18    19    1
    36    18    20    1
    37    20    21    1
    38    20    45    1
    39    20    46    1
    40    21    22    1
    41    21    47    1
    42    21    48    1
    43    22    23    2
    44    23    49    1
    45    24    25    1
    46    24    50    1
    47    24    51    1
    48    25    26    1
    49    25    52    1
    50    25    53    1
    51    26    27    1
    52    26    29    1
    53    27    28    3
    54    28    54    1
    55    29    30    1
    56    30    31    2
    57    30    32    1
    58    32    55    1
    59    32    56    1
    60    32    57    1
    61    33    58    1
    62    33    59    1
    63    33    60    1
