@<TRIPOS>MOLECULE
ZINC00000440
 34 37 0 0 0
SMALL
GASTEIGER

@<TRIPOS>ATOM
      1 C          -1.2154    1.7525    0.0173 C.ar    1  UNL1       -0.0609
      2 C          -1.2367    3.1359    0.0316 C.ar    1  UNL1       -0.0612
      3 C          -0.0518    3.8515    0.0237 C.ar    1  UNL1       -0.0508
      4 C           1.1538    3.1842    0.0082 C.ar    1  UNL1        0.0453
      5 C           1.1839    1.7925    0.0004 C.ar    1  UNL1        0.0714
      6 C          -0.0126    1.0758    0.0080 C.ar    1  UNL1       -0.0465
      7 C           2.6036    1.3421   -0.0156 C.2     1  UNL1        0.2759
      8 C           4.7115    0.4696   -0.0405 C.3     1  UNL1        0.1203
      9 C           4.8236    2.0056   -0.0333 C.3     1  UNL1        0.1210
     10 N           3.4185    2.4456   -0.0175 N.pl3   1  UNL1       -0.1829
     11 C           2.5855    3.6542   -0.0030 C.3     1  UNL1        0.2562
     12 C           2.8505    4.4797   -1.2356 C.ar    1  UNL1        0.0307
     13 C           3.2377    3.8624   -2.4104 C.ar    1  UNL1       -0.0503
     14 C           3.4754    4.6185   -3.5428 C.ar    1  UNL1       -0.0429
     15 C           3.3366    5.9943   -3.4974 C.ar    1  UNL1        0.0410
     16 C           2.9545    6.6119   -2.3199 C.ar    1  UNL1       -0.0429
     17 C           2.7116    5.8543   -1.1896 C.ar    1  UNL1       -0.0503
     18 CL          3.6412    6.9451   -4.9175 Cl      1  UNL1       -0.0835
     19 O           2.8582    4.4237    1.1699 O.3     1  UNL1       -0.3462
     20 H          -2.1434    1.2001    0.0183 H       1  UNL1        0.0618
     21 H          -2.1812    3.6594    0.0434 H       1  UNL1        0.0618
     22 H          -0.0721    4.9313    0.0294 H       1  UNL1        0.0623
     23 H           0.0021   -0.0041    0.0020 H       1  UNL1        0.0626
     24 H           5.1805    0.0484    0.8487 H       1  UNL1        0.0783
     25 H           5.1638    0.0560   -0.9419 H       1  UNL1        0.0783
     26 H           5.3444    2.3492    0.8605 H       1  UNL1        0.0767
     27 H           5.3299    2.3587   -0.9316 H       1  UNL1        0.0767
     28 H           3.3503    2.7889   -2.4446 H       1  UNL1        0.0623
     29 H           3.7736    4.1358   -4.4617 H       1  UNL1        0.0632
     30 H           2.8463    7.6859   -2.2837 H       1  UNL1        0.0632
     31 H           2.4130    6.3364   -0.2705 H       1  UNL1        0.0623
     32 H           2.3380    5.2360    1.2371 H       1  UNL1        0.2149
     33 N           3.2644    0.2103   -0.0281 N.2     1  UNL1       -0.2714
     34 H           2.8340   -0.7219   -0.0291 H       1  UNL1        0.3040
@<TRIPOS>UNITY_ATOM_ATTR
33 1
charge 1
@<TRIPOS>BOND
     1     1     6   ar
     2     1     2   ar
     3     1    20    1
     4     2     3   ar
     5     2    21    1
     6     3     4   ar
     7     3    22    1
     8     4    11    1
     9     4     5   ar
    10     5     6   ar
    11     5     7    1
    12     6    23    1
    13     7    10    1
    14     7    33    2
    15     8     9    1
    16     8    24    1
    17     8    25    1
    18     8    33    1
    19     9    10    1
    20     9    26    1
    21     9    27    1
    22    10    11    1
    23    11    12    1
    24    11    19    1
    25    12    17   ar
    26    12    13   ar
    27    13    14   ar
    28    13    28    1
    29    14    15   ar
    30    14    29    1
    31    15    16   ar
    32    15    18    1
    33    16    17   ar
    34    16    30    1
    35    17    31    1
    36    19    32    1
    37    33    34    1
