@<TRIPOS>MOLECULE
ZINC03860903
 24 24 0 0 0
SMALL
GASTEIGER

@<TRIPOS>ATOM
      1 C          -1.4457    3.3453    2.6063 C.3     1  UNL1        0.0730
      2 C          -0.7356    2.9698    1.3041 C.3     1  UNL1        0.1130
      3 H           0.2774    3.3721    1.3134 H       1  UNL1        0.0647
      4 C          -1.5056    3.5529    0.1163 C.3     1  UNL1        0.1119
      5 H          -2.5306    3.1825    0.1295 H       1  UNL1        0.0647
      6 C          -0.8226    3.1227   -1.1856 C.3     1  UNL1        0.1141
      7 H           0.1860    3.5345   -1.2216 H       1  UNL1        0.0648
      8 C          -0.7536    1.5932   -1.2319 C.3     1  UNL1        0.1339
      9 H          -0.2203    1.2787   -2.1290 H       1  UNL1        0.0671
     10 C          -0.0127    1.0858    0.0080 C.3     1  UNL1        0.1854
     11 H           0.0021   -0.0041    0.0020 H       1  UNL1        0.0935
     12 O          -0.6820    1.5469    1.1834 O.3     1  UNL1       -0.3407
     13 O           1.3278    1.5807   -0.0021 O.3     1  UNL1       -0.3649
     14 O          -2.0776    1.0558   -1.2503 O.3     1  UNL1       -0.3841
     15 O          -1.5744    3.6013   -2.3026 O.3     1  UNL1       -0.3864
     16 O          -1.5107    4.9791    0.2042 O.3     1  UNL1       -0.3865
     17 O          -0.6664    2.9016    3.7189 O.3     1  UNL1       -0.3924
     18 H          -1.5661    4.4275    2.6555 H       1  UNL1        0.0584
     19 H          -2.4257    2.8690    2.6361 H       1  UNL1        0.0584
     20 H           1.8570    1.2984    0.7564 H       1  UNL1        0.2126
     21 H          -2.1096    0.0896   -1.2748 H       1  UNL1        0.2101
     22 H          -1.2009    3.3590   -3.1610 H       1  UNL1        0.2100
     23 H          -1.9782    5.4162   -0.5207 H       1  UNL1        0.2100
     24 H          -1.0571    3.1064    4.5794 H       1  UNL1        0.2095
@<TRIPOS>BOND
     1     1     2    1
     2     1    17    1
     3     1    18    1
     4     1    19    1
     5     2     3    1
     6     2    12    1
     7     2     4    1
     8     4     5    1
     9     4     6    1
    10     4    16    1
    11     6     7    1
    12     6     8    1
    13     6    15    1
    14     8     9    1
    15     8    10    1
    16     8    14    1
    17    10    11    1
    18    10    12    1
    19    10    13    1
    20    13    20    1
    21    14    21    1
    22    15    22    1
    23    16    23    1
    24    17    24    1
