@<TRIPOS>MOLECULE
ZINC08101201
 112 120 0 0 0
SMALL
GASTEIGER

@<TRIPOS>ATOM
      1 C           3.7852   13.0287   -2.9988 C.3     1  UNL1       -0.0625
      2 C           3.6624   11.6522   -2.3424 C.3     1  UNL1       -0.0218
      3 C           2.8039   11.7660   -1.0661 C.3     1  UNL1        0.1057
      4 C           1.4024   12.1659   -1.4649 C.3     1  UNL1       -0.0113
      5 C           0.4015   11.0535   -1.6602 C.3     1  UNL1        0.0037
      6 H           0.1191   11.0940   -2.7606 H       1  UNL1        0.0354
      7 C          -0.9206   11.2395   -0.8144 C.3     1  UNL1       -0.0200
      8 C          -0.5004   10.4515    0.4139 C.3     1  UNL1        0.1347
      9 C          -1.0404   10.3294    1.7994 C.2     1  UNL1        0.0485
     10 N          -1.8234   10.8240    2.6250 N.2     1  UNL1       -0.2541
     11 C          -1.6016   10.3906    3.8951 C.ar    1  UNL1        0.0676
     12 C          -2.1490   10.8333    5.1069 C.ar    1  UNL1       -0.0360
     13 C          -1.6740   10.2405    6.2658 C.ar    1  UNL1       -0.0597
     14 C          -0.7032    9.2579    6.2422 C.ar    1  UNL1       -0.0614
     15 C          -0.1818    8.7778    5.0439 C.ar    1  UNL1       -0.0559
     16 C          -0.6666    9.3378    3.8877 C.ar    1  UNL1       -0.0132
     17 C          -0.3892    9.0567    2.4320 C.3     1  UNL1        0.0307
     18 H          -0.9161    8.1037    2.2117 H       1  UNL1        0.0412
     19 C           1.0715    9.0021    2.1008 C.3     1  UNL1       -0.0005
     20 C           1.7396    8.5634    0.7819 C.3     1  UNL1       -0.0309
     21 C           1.0648    9.7036   -1.4365 C.3     1  UNL1       -0.0288
     22 C           3.0143   10.5137   -0.2337 C.3     1  UNL1       -0.0024
     23 C          -0.8481    9.0557    0.0847 C.ar    1  UNL1        0.0170
     24 C          -0.3728    8.0285    0.8938 C.ar    1  UNL1       -0.0479
     25 C          -0.7248    6.7482    0.5476 C.ar    1  UNL1       -0.0122
     26 C          -1.5508    6.4673   -0.5674 C.ar    1  UNL1        0.0373
     27 C          -2.0066    7.4983   -1.3758 C.ar    1  UNL1        0.0017
     28 C          -1.6386    8.7957   -1.0219 C.ar    1  UNL1        0.1264
     29 O          -2.0710    9.8337   -1.7853 O.3     1  UNL1       -0.4947
     30 C          -2.8839    9.5130   -2.9159 C.3     1  UNL1        0.0788
     31 N          -1.8078    5.0804   -0.6416 N.pl3   1  UNL1       -0.3252
     32 C          -1.6844    4.6809    0.7674 C.3     1  UNL1        0.0780
     33 H          -2.4968    5.2635    1.2692 H       1  UNL1        0.0545
     34 C          -0.4029    5.4047    1.1456 C.3     1  UNL1        0.0674
     35 C           0.9201    4.9498    0.5224 C.3     1  UNL1        0.0042
     36 C           1.9799    5.4443    1.5529 C.3     1  UNL1       -0.0302
     37 C          -0.1542    5.3684    2.6436 C.3     1  UNL1        0.0031
     38 H          -0.8175    6.0988    3.1878 H       1  UNL1        0.0870
     39 C          -0.3422    3.9560    3.1817 C.3     1  UNL1        0.0614
     40 C          -0.0712    4.0044    4.6607 C.2     1  UNL1       -0.0690
     41 C           0.9304    4.7596    5.0491 C.2     1  UNL1       -0.0426
     42 C           1.8419    5.4596    4.0799 C.3     1  UNL1       -0.0127
     43 C          -1.5520    3.2020    2.7509 C.3     1  UNL1        0.1084
     44 H          -2.4205    3.5907    3.3085 H       1  UNL1        0.0638
     45 C          -1.8681    3.2872    1.2412 C.3     1  UNL1        0.1874
     46 C          -1.0965    2.2849    0.4251 C.2     1  UNL1        0.2467
     47 O          -0.3977    2.6594   -0.4927 O.2     1  UNL1       -0.2727
     48 N          -1.1864    0.9709    0.7109 N.am    1  UNL1       -0.3268
     49 O          -3.2733    2.9383    1.0965 O.3     1  UNL1       -0.3754
     50 O          -1.3967    1.8217    3.1165 O.3     1  UNL1       -0.3873
     51 C           0.8213    3.0816    2.7536 C.3     1  UNL1       -0.0391
     52 C           0.8357    1.8039    3.5951 C.3     1  UNL1       -0.0642
     53 C          -3.1693    4.8490   -1.1439 C.3     1  UNL1        0.0011
     54 C           0.6313   11.2532    0.9180 C.2     1  UNL1        0.3232
     55 O           1.6639   10.7101    1.2321 O.2     1  UNL1       -0.2494
     56 O           0.5136   12.5858    1.0275 O.3     1  UNL1       -0.4671
     57 C           1.5925   13.2900    1.6972 C.3     1  UNL1        0.0817
     58 O           3.3594   12.8710   -0.3085 O.3     1  UNL1       -0.3833
     59 H           4.3169   12.9337   -3.9456 H       1  UNL1        0.0231
     60 H           2.7901   13.4349   -3.1802 H       1  UNL1        0.0231
     61 H           4.3361   13.6984   -2.3384 H       1  UNL1        0.0231
     62 H           4.6547   11.2844   -2.0812 H       1  UNL1        0.0292
     63 H           3.1894   10.9589   -3.0378 H       1  UNL1        0.0292
     64 H           1.4940   12.6639   -2.4579 H       1  UNL1        0.0299
     65 H           1.0144   12.9431   -0.8176 H       1  UNL1        0.0299
     66 H          -1.8170   10.8209   -1.3189 H       1  UNL1        0.0287
     67 H          -1.1454   12.3047   -0.5959 H       1  UNL1        0.0287
     68 H          -2.9073   11.6012    5.1372 H       1  UNL1        0.0639
     69 H          -2.0638   10.5671    7.2187 H       1  UNL1        0.0618
     70 H          -0.3382    8.8541    7.1750 H       1  UNL1        0.0618
     71 H           0.5696    8.0009    5.0273 H       1  UNL1        0.0621
     72 H           1.4356    8.1886    2.8131 H       1  UNL1        0.0326
     73 H           1.6170    9.8315    2.5483 H       1  UNL1        0.0326
     74 H           1.2272    7.6580    0.4080 H       1  UNL1        0.0815
     75 H           2.7348    8.1351    1.0881 H       1  UNL1        0.0815
     76 H           0.5134    8.8584   -1.7449 H       1  UNL1        0.0817
     77 H           1.7929    9.6797   -2.3158 H       1  UNL1        0.0817
     78 H           3.9658   10.0552   -0.5702 H       1  UNL1        0.0843
     79 H           3.1928   10.7967    0.8090 H       1  UNL1        0.0843
     80 H           0.2463    8.2364    1.7543 H       1  UNL1        0.0625
     81 H          -2.6189    7.3179   -2.2468 H       1  UNL1        0.0673
     82 H          -3.7855    9.0000   -2.5814 H       1  UNL1        0.0660
     83 H          -3.1596   10.4299   -3.4369 H       1  UNL1        0.0660
     84 H          -2.3265    8.8646   -3.5919 H       1  UNL1        0.0660
     85 H           0.9865    3.8891    0.3544 H       1  UNL1        0.0328
     86 H           1.0805    5.4751   -0.4312 H       1  UNL1        0.0328
     87 H           2.4447    6.3600    1.1656 H       1  UNL1        0.0815
     88 H           2.7560    4.6895    1.6779 H       1  UNL1        0.0815
     89 H          -0.6782    3.4508    5.3402 H       1  UNL1        0.0579
     90 H           1.1325    4.8531    6.1045 H       1  UNL1        0.0622
     91 H           2.1374    6.4112    4.5331 H       1  UNL1        0.0861
     92 H           2.7445    4.8568    3.9687 H       1  UNL1        0.0861
     93 H          -0.6923    0.3247    0.1825 H       1  UNL1        0.1450
     94 H          -1.7453    0.6713    1.4449 H       1  UNL1        0.1450
     95 H          -3.4915    2.0484    1.4056 H       1  UNL1        0.2110
     96 H          -2.1814    1.2809    2.9531 H       1  UNL1        0.2100
     97 H           0.7125    2.8220    1.7006 H       1  UNL1        0.0274
     98 H           1.7558    3.6234    2.8996 H       1  UNL1        0.0274
     99 H           0.4878    2.0289    4.6033 H       1  UNL1        0.0230
    100 H           0.1785    1.0624    3.1410 H       1  UNL1        0.0230
    101 H           1.8511    1.4102    3.6405 H       1  UNL1        0.0230
    102 H          -3.2700    5.2883   -2.1363 H       1  UNL1        0.0428
    103 H          -3.3586    3.7770   -1.2001 H       1  UNL1        0.0428
    104 H          -3.8893    5.3101   -0.4677 H       1  UNL1        0.0428
    105 H           1.3268   14.3414    1.8075 H       1  UNL1        0.0661
    106 H           1.7568   12.8516    2.6815 H       1  UNL1        0.0661
    107 H           2.5039   13.2058    1.1052 H       1  UNL1        0.0661
    108 H           4.2635   12.7211    0.0001 H       1  UNL1        0.2104
    109 N           2.1761    9.3471   -0.4824 N.4     1  UNL1        0.2375
    110 H           2.7757    8.6913   -0.9968 H       1  UNL1        0.2034
    111 N           1.2239    5.8601    2.7545 N.4     1  UNL1        0.2416
    112 H           1.1911    6.8863    2.7447 H       1  UNL1        0.2040
@<TRIPOS>UNITY_ATOM_ATTR
109 1
charge 1
111 1
charge 1
@<TRIPOS>BOND
     1     1     2    1
     2     1    59    1
     3     1    60    1
     4     1    61    1
     5     2     3    1
     6     2    62    1
     7     2    63    1
     8     3    22    1
     9     3     4    1
    10     3    58    1
    11     4     5    1
    12     4    64    1
    13     4    65    1
    14     5     6    1
    15     5    21    1
    16     5     7    1
    17     7     8    1
    18     7    66    1
    19     7    67    1
    20     8     9    1
    21     8    23    1
    22     8    54    1
    23     9    17    1
    24     9    10    2
    25    10    11    1
    26    11    16   ar
    27    11    12   ar
    28    12    13   ar
    29    12    68    1
    30    13    14   ar
    31    13    69    1
    32    14    15   ar
    33    14    70    1
    34    15    16   ar
    35    15    71    1
    36    16    17    1
    37    17    18    1
    38    17    19    1
    39    19    20    1
    40    19    72    1
    41    19    73    1
    42    20    74    1
    43    20    75    1
    44    20   109    1
    45    21    76    1
    46    21    77    1
    47    21   109    1
    48    22    78    1
    49    22    79    1
    50    22   109    1
    51    23    28   ar
    52    23    24   ar
    53    24    25   ar
    54    24    80    1
    55    25    34    1
    56    25    26   ar
    57    26    27   ar
    58    26    31    1
    59    27    28   ar
    60    27    81    1
    61    28    29    1
    62    29    30    1
    63    30    82    1
    64    30    83    1
    65    30    84    1
    66    31    32    1
    67    31    53    1
    68    32    33    1
    69    32    45    1
    70    32    34    1
    71    34    37    1
    72    34    35    1
    73    35    36    1
    74    35    85    1
    75    35    86    1
    76    36    87    1
    77    36    88    1
    78    36   111    1
    79    37    38    1
    80    37    39    1
    81    37   111    1
    82    39    40    1
    83    39    43    1
    84    39    51    1
    85    40    41    2
    86    40    89    1
    87    41    42    1
    88    41    90    1
    89    42    91    1
    90    42    92    1
    91    42   111    1
    92    43    44    1
    93    43    45    1
    94    43    50    1
    95    45    46    1
    96    45    49    1
    97    46    47    2
    98    46    48   am
    99    48    93    1
   100    48    94    1
   101    49    95    1
   102    50    96    1
   103    51    52    1
   104    51    97    1
   105    51    98    1
   106    52    99    1
   107    52   100    1
   108    52   101    1
   109    53   102    1
   110    53   103    1
   111    53   104    1
   112    54    55    2
   113    54    56    1
   114    56    57    1
   115    57   105    1
   116    57   106    1
   117    57   107    1
   118    58   108    1
   119   109   110    1
   120   111   112    1
