@<TRIPOS>MOLECULE
ZINC03812923
 47 50 0 0 0
SMALL
GASTEIGER

@<TRIPOS>ATOM
      1 C          -0.0374    2.0620    7.3754 C.3     1  UNL1        0.0789
      2 O          -1.0174    1.1707    6.8396 O.3     1  UNL1       -0.4932
      3 C          -1.9568    1.7087    6.0166 C.ar    1  UNL1        0.1429
      4 C          -1.9350    3.0636    5.7319 C.ar    1  UNL1        0.0043
      5 C          -2.8948    3.6107    4.8909 C.ar    1  UNL1        0.0512
      6 C          -3.8797    2.8008    4.3400 C.ar    1  UNL1       -0.0374
      7 C          -3.8997    1.4479    4.6184 C.ar    1  UNL1       -0.0352
      8 C          -2.9423    0.8971    5.4583 C.ar    1  UNL1        0.0737
      9 N          -2.9663   -0.4746    5.7446 N.pl3   1  UNL1       -0.3106
     10 C          -3.9696   -1.2676    5.2327 C.ar    1  UNL1        0.0500
     11 C          -5.0757   -1.6430    6.0216 C.ar    1  UNL1        0.0221
     12 C          -5.1933   -1.2092    7.3528 C.ar    1  UNL1       -0.0508
     13 C          -6.2750   -1.5814    8.0899 C.ar    1  UNL1       -0.0610
     14 C          -7.2734   -2.3847    7.5394 C.ar    1  UNL1       -0.0597
     15 C          -7.1964   -2.8191    6.2537 C.ar    1  UNL1       -0.0357
     16 C          -6.0923   -2.4563    5.4554 C.ar    1  UNL1        0.0735
     17 N          -6.0052   -2.8757    4.1940 N.ar    1  UNL1       -0.2466
     18 C          -4.9757   -2.5509    3.4135 C.ar    1  UNL1        0.0735
     19 C          -3.9220   -1.7357    3.9041 C.ar    1  UNL1        0.0221
     20 C          -2.8475   -1.4063    3.0607 C.ar    1  UNL1       -0.0508
     21 C          -2.8269   -1.8720    1.7822 C.ar    1  UNL1       -0.0610
     22 C          -3.8597   -2.6734    1.2963 C.ar    1  UNL1       -0.0597
     23 C          -4.9154   -3.0124    2.0826 C.ar    1  UNL1       -0.0357
     24 N          -2.8734    4.9795    4.6028 N.pl3   1  UNL1       -0.2208
     25 S          -1.7545    5.5851    3.5428 S.O2    1  UNL1        0.0403
     26 O          -2.0389    6.9755    3.4705 O.2     1  UNL1       -0.1555
     27 O          -1.8649    4.7622    2.3896 O.2     1  UNL1       -0.1555
     28 C          -0.1531    5.3161    4.3513 C.3     1  UNL1        0.0736
     29 H           0.5182    2.5242    6.5595 H       1  UNL1        0.0660
     30 H          -0.5322    2.8359    7.9622 H       1  UNL1        0.0660
     31 H           0.6494    1.5058    8.0134 H       1  UNL1        0.0660
     32 H          -1.1721    3.6944    6.1638 H       1  UNL1        0.0674
     33 H          -4.6283    3.2286    3.6896 H       1  UNL1        0.0637
     34 H          -4.6637    0.8191    4.1856 H       1  UNL1        0.0638
     35 H          -2.2764   -0.8656    6.3032 H       1  UNL1        0.1523
     36 H          -4.4267   -0.5869    7.7904 H       1  UNL1        0.0625
     37 H          -6.3612   -1.2510    9.1145 H       1  UNL1        0.0618
     38 H          -8.1220   -2.6665    8.1450 H       1  UNL1        0.0618
     39 H          -7.9792   -3.4405    5.8445 H       1  UNL1        0.0639
     40 H          -2.0418   -0.7864    3.4254 H       1  UNL1        0.0625
     41 H          -2.0003   -1.6174    1.1354 H       1  UNL1        0.0618
     42 H          -3.8202   -3.0306    0.2779 H       1  UNL1        0.0618
     43 H          -5.7060   -3.6340    1.6890 H       1  UNL1        0.0639
     44 H          -3.5140    5.5739    5.0239 H       1  UNL1        0.1733
     45 H          -0.1874    5.7121    5.3662 H       1  UNL1        0.0482
     46 H           0.0621    4.2481    4.3850 H       1  UNL1        0.0482
     47 H           0.6284    5.8265    3.7884 H       1  UNL1        0.0482
@<TRIPOS>BOND
     1     1     2    1
     2     1    29    1
     3     1    30    1
     4     1    31    1
     5     2     3    1
     6     3     8   ar
     7     3     4   ar
     8     4     5   ar
     9     4    32    1
    10     5     6   ar
    11     5    24    1
    12     6     7   ar
    13     6    33    1
    14     7     8   ar
    15     7    34    1
    16     8     9    1
    17     9    10    1
    18     9    35    1
    19    10    19   ar
    20    10    11   ar
    21    11    16   ar
    22    11    12   ar
    23    12    13   ar
    24    12    36    1
    25    13    14   ar
    26    13    37    1
    27    14    15   ar
    28    14    38    1
    29    15    16   ar
    30    15    39    1
    31    16    17   ar
    32    17    18   ar
    33    18    23   ar
    34    18    19   ar
    35    19    20   ar
    36    20    21   ar
    37    20    40    1
    38    21    22   ar
    39    21    41    1
    40    22    23   ar
    41    22    42    1
    42    23    43    1
    43    24    25    1
    44    24    44    1
    45    25    26    2
    46    25    27    2
    47    25    28    1
    48    28    45    1
    49    28    46    1
    50    28    47    1
