@<TRIPOS>MOLECULE
ZINC00895042
 14 13 0 0 0
SMALL
GASTEIGER

@<TRIPOS>ATOM
      1 CB         -0.0127    1.0858    0.0080 C.3     1  CYS1        0.0391
      2 CA         -0.7288    1.5792    1.2668 C.3     1  CYS1        0.0249
      3 HA         -1.7514    1.2020    1.2746 H       1  CYS1        0.0923
      4 C           0.0000    1.0800    2.4877 C.2     1  CYS1        0.0901
      5 O           0.7544    1.8127    3.0826 O.co2   1  CYS1       -0.5441
      6 SG         -0.8901    1.6867   -1.4616 S.3     1  CYS1       -0.1723
      7 HB1         0.0021   -0.0041    0.0020 H       1  CYS1        0.0433
      8 HB2         1.0099    1.4631    0.0003 H       1  CYS1        0.0433
      9 H1         -1.2723    3.3983    2.0632 H       1  CYS1        0.2001
     10 H2          0.1882    3.4225    1.2680 H       1  CYS1        0.2001
     11 HG         -0.1764    1.1953   -2.4903 H       1  CYS1        0.1018
     12 OXT        -0.1888   -0.1786    2.9142 O.co2   1  CYS1       -0.5441
     13 N          -0.7608    3.0524    1.2530 N.4     1  CYS1        0.2255
     14 H3         -1.2315    3.3718    0.3982 H       1  CYS1        0.2001
@<TRIPOS>UNITY_ATOM_ATTR
12 1
charge -1
13 1
charge 1
@<TRIPOS>BOND
     1     1     2    1
     2     1     6    1
     3     1     7    1
     4     1     8    1
     5     2     3    1
     6     2     4    1
     7     2    13    1
     8     4     5   ar
     9     4    12   ar
    10     6    11    1
    11     9    13    1
    12    10    13    1
    13    13    14    1
