@<TRIPOS>MOLECULE
ZINC03201889
 35 37 0 0 0
SMALL
GASTEIGER

@<TRIPOS>ATOM
      1 C           1.1074    3.3957    0.0098 C.ar    1  UNL1        0.1205
      2 N           1.1157    2.0750    0.0025 N.ar    1  UNL1       -0.2188
      3 C          -0.0167    1.3796    0.0096 C.ar    1  UNL1        0.1472
      4 C          -1.2339    2.0822    0.0191 C.ar    1  UNL1        0.1473
      5 C          -1.1891    3.4864    0.0318 C.ar    1  UNL1        0.1674
      6 N          -0.0075    4.0951    0.0238 N.ar    1  UNL1       -0.2159
      7 N          -2.4951    3.9064    0.0466 N.ar    1  UNL1       -0.2855
      8 C          -3.2823    2.7934    0.0486 C.ar    1  UNL1        0.1004
      9 N          -2.5404    1.7243    0.0359 N.ar    1  UNL1       -0.2306
     10 C          -2.9587    5.2960    0.0577 C.3     1  UNL1        0.1667
     11 H          -2.2922    5.9138   -0.5441 H       1  UNL1        0.0866
     12 C          -2.9979    5.8238    1.5050 C.3     1  UNL1        0.1285
     13 H          -2.6519    5.0584    2.1997 H       1  UNL1        0.0665
     14 C          -4.4923    6.1439    1.7519 C.3     1  UNL1        0.1135
     15 H          -4.6941    7.2036    1.5954 H       1  UNL1        0.0647
     16 C          -5.1920    5.2820    0.6702 C.3     1  UNL1        0.1131
     17 H          -5.2880    4.2492    1.0053 H       1  UNL1        0.0647
     18 O          -4.2964    5.3692   -0.4634 O.3     1  UNL1       -0.3456
     19 C          -6.5637    5.8635    0.3221 C.3     1  UNL1        0.0797
     20 O          -7.2345    4.9896   -0.5880 O.3     1  UNL1       -0.3646
     21 P          -8.7060    5.2896   -1.1683 P.3     1  UNL1       -0.0150
     22 O          -8.7218    6.6248   -1.8066 O.2     1  UNL1       -0.6377
     23 O          -4.8907    5.7389    3.0631 O.3     1  UNL1       -0.3864
     24 O          -2.2060    7.0070    1.6275 O.3     1  UNL1       -0.3847
     25 N           0.0021   -0.0041    0.0020 N.pl3   1  UNL1       -0.3413
     26 H           2.0507    3.9214    0.0036 H       1  UNL1        0.1048
     27 H          -4.3622    2.7982    0.0594 H       1  UNL1        0.1030
     28 H          -7.1563    5.9657    1.2312 H       1  UNL1        0.0590
     29 H          -6.4366    6.8421   -0.1407 H       1  UNL1        0.0590
     30 H          -4.4140    6.1871    3.7750 H       1  UNL1        0.2100
     31 H          -2.1949    7.3823    2.5187 H       1  UNL1        0.2101
     32 H           0.4702   -0.3266   -0.8208 H       1  UNL1        0.1438
     33 H          -0.8313   -0.5005    0.0073 H       1  UNL1        0.1438
     34 O          -9.0919    4.1691   -2.2581 O.co2   1  UNL1       -0.5770
     35 O          -9.7744    5.2577    0.0357 O.co2   1  UNL1       -0.5770
@<TRIPOS>UNITY_ATOM_ATTR
34 1
charge -1
35 1
charge -1
@<TRIPOS>BOND
     1     1     6   ar
     2     1     2   ar
     3     1    26    1
     4     2     3   ar
     5     3     4   ar
     6     3    25    1
     7     4     9   ar
     8     4     5   ar
     9     5     6   ar
    10     5     7   ar
    11     7     8   ar
    12     7    10    1
    13     8     9   ar
    14     8    27    1
    15    10    11    1
    16    10    18    1
    17    10    12    1
    18    12    13    1
    19    12    14    1
    20    12    24    1
    21    14    15    1
    22    14    16    1
    23    14    23    1
    24    16    17    1
    25    16    18    1
    26    16    19    1
    27    19    20    1
    28    19    28    1
    29    19    29    1
    30    20    21    1
    31    21    22    2
    32    21    34    1
    33    21    35    1
    34    23    30    1
    35    24    31    1
    36    25    32    1
    37    25    33    1
