@<TRIPOS>MOLECULE
ZINC03830932
 32 32 0 0 0
SMALL
GASTEIGER

@<TRIPOS>ATOM
      1 C          -0.3487    6.8620    0.8266 C.3     1  UNL1       -0.0558
      2 C          -1.1286    6.0333    1.8494 C.3     1  UNL1        0.0119
      3 H          -0.6404    5.0680    1.9831 H       1  UNL1        0.0373
      4 C          -2.5576    5.8169    1.3473 C.3     1  UNL1        0.0275
      5 N          -2.5327    4.9659    0.1551 N.am    1  UNL1       -0.2691
      6 C          -2.5483    3.5726    0.2892 C.ar    1  UNL1        0.0643
      7 C          -3.7505    2.9074    0.4981 C.ar    1  UNL1        0.0369
      8 C          -3.7669    1.5320    0.6311 C.ar    1  UNL1       -0.0318
      9 C          -2.5885    0.8134    0.5560 C.ar    1  UNL1        0.0361
     10 C          -1.3832    1.4726    0.3469 C.ar    1  UNL1        0.0530
     11 C          -1.3629    2.8549    0.2190 C.ar    1  UNL1        0.0573
     12 I           0.4527    3.8541   -0.0877 I       1  UNL1       -0.0399
     13 N          -0.1921    0.7454    0.2710 N.pl3   1  UNL1       -0.3563
     14 I          -2.6197   -1.2717    0.7571 I       1  UNL1       -0.0419
     15 I          -5.5399    3.9911    0.6122 I       1  UNL1       -0.0418
     16 C          -2.4947    5.5245   -1.0709 C.2     1  UNL1        0.2167
     17 O          -2.5655    4.8244   -2.0587 O.2     1  UNL1       -0.2756
     18 C          -2.3644    7.0190   -1.2143 C.3     1  UNL1        0.0127
     19 C          -1.1643    6.7649    3.1664 C.2     1  UNL1        0.0461
     20 O          -2.2239    7.0808    3.6535 O.co2   1  UNL1       -0.5495
     21 H          -0.8370    7.8273    0.6930 H       1  UNL1        0.0236
     22 H           0.6693    7.0162    1.1843 H       1  UNL1        0.0236
     23 H          -0.3229    6.3329   -0.1260 H       1  UNL1        0.0236
     24 H          -3.0046    6.7792    1.0976 H       1  UNL1        0.0475
     25 H          -3.1472    5.3336    2.1264 H       1  UNL1        0.0475
     26 H          -4.7024    1.0175    0.7938 H       1  UNL1        0.0639
     27 H          -0.2065   -0.2199    0.3643 H       1  UNL1        0.1424
     28 H           0.6484    1.2058    0.1210 H       1  UNL1        0.1424
     29 H          -1.3126    7.2832   -1.3233 H       1  UNL1        0.0323
     30 H          -2.9151    7.3489   -2.0952 H       1  UNL1        0.0323
     31 H          -2.7714    7.5059   -0.3280 H       1  UNL1        0.0323
     32 O          -0.0189    7.0656    3.7984 O.co2   1  UNL1       -0.5495
@<TRIPOS>UNITY_ATOM_ATTR
32 1
charge -1
@<TRIPOS>BOND
     1     1     2    1
     2     1    21    1
     3     1    22    1
     4     1    23    1
     5     2     3    1
     6     2     4    1
     7     2    19    1
     8     4     5    1
     9     4    24    1
    10     4    25    1
    11     5     6    1
    12     5    16   am
    13     6    11   ar
    14     6     7   ar
    15     7     8   ar
    16     7    15    1
    17     8     9   ar
    18     8    26    1
    19     9    10   ar
    20     9    14    1
    21    10    11   ar
    22    10    13    1
    23    11    12    1
    24    13    27    1
    25    13    28    1
    26    16    17    2
    27    16    18    1
    28    18    29    1
    29    18    30    1
    30    18    31    1
    31    19    20   ar
    32    19    32   ar
