@<TRIPOS>MOLECULE
ZINC03831297
 49 52 0 0 0
SMALL
GASTEIGER

@<TRIPOS>ATOM
      1 C          -5.6996   -0.1809    2.5824 C.3     1  UNL1       -0.0605
      2 C          -4.2629    0.3421    2.5236 C.3     1  UNL1       -0.0153
      3 C          -4.2784    1.8713    2.4766 C.3     1  UNL1       -0.0319
      4 C          -2.2207    1.9124    1.2023 C.3     1  UNL1       -0.0279
      5 C          -0.7485    2.3279    1.2513 C.3     1  UNL1        0.0089
      6 H          -0.2695    1.8730    2.1184 H       1  UNL1        0.0361
      7 C          -0.6590    3.8524    1.3587 C.3     1  UNL1       -0.0326
      8 C          -1.4168    4.3164    2.6060 C.3     1  UNL1        0.0285
      9 H          -0.9459    3.8891    3.4914 H       1  UNL1        0.0404
     10 C          -2.8672    3.8379    2.5269 C.3     1  UNL1       -0.0098
     11 H          -3.3144    4.2471    1.6210 H       1  UNL1        0.0860
     12 C          -3.7171    4.2485    3.7383 C.3     1  UNL1        0.0181
     13 C          -3.6389    5.7503    3.8477 C.ar    1  UNL1       -0.0168
     14 C          -4.4118    6.7090    4.3340 C.ar    1  UNL1        0.0061
     15 N          -3.8194    7.9481    4.1412 N.ar    1  UNL1       -0.3604
     16 H          -4.2025    8.7945    4.4200 H       1  UNL1        0.1653
     17 C          -2.6226    7.8080    3.5059 C.ar    1  UNL1        0.0470
     18 C          -2.4620    6.4317    3.3086 C.ar    1  UNL1        0.0067
     19 C          -1.3704    5.8116    2.6959 C.ar    1  UNL1       -0.0295
     20 C          -0.3964    6.6513    2.2564 C.ar    1  UNL1       -0.0574
     21 C          -0.5213    8.0287    2.4323 C.ar    1  UNL1       -0.0595
     22 C          -1.6052    8.6422    3.0459 C.ar    1  UNL1       -0.0378
     23 C          -0.0435    1.8631   -0.0245 C.3     1  UNL1        0.0011
     24 S          -0.0208    0.0500   -0.0766 S.3     1  UNL1       -0.1637
     25 C           0.8371   -0.3338   -1.6282 C.3     1  UNL1       -0.0181
     26 H          -5.6886   -1.2703    2.6160 H       1  UNL1        0.0232
     27 H          -6.1905    0.2052    3.4758 H       1  UNL1        0.0232
     28 H          -6.2432    0.1499    1.6975 H       1  UNL1        0.0232
     29 H          -3.7721   -0.0440    1.6302 H       1  UNL1        0.0314
     30 H          -3.7193    0.0113    3.4086 H       1  UNL1        0.0314
     31 H          -4.7693    2.2573    3.3699 H       1  UNL1        0.0814
     32 H          -4.8220    2.2021    1.5916 H       1  UNL1        0.0814
     33 H          -2.6960    2.3604    0.3297 H       1  UNL1        0.0817
     34 H          -2.2899    0.8265    1.1367 H       1  UNL1        0.0817
     35 H           0.3865    4.1510    1.4359 H       1  UNL1        0.0278
     36 H          -1.1033    4.3063    0.4730 H       1  UNL1        0.0278
     37 H          -3.3311    3.7918    4.6496 H       1  UNL1        0.0369
     38 H          -4.7518    3.9434    3.5826 H       1  UNL1        0.0369
     39 H          -5.3672    6.5491    4.8116 H       1  UNL1        0.0810
     40 H           0.4793    6.2493    1.7686 H       1  UNL1        0.0621
     41 H           0.2762    8.6590    2.0675 H       1  UNL1        0.0618
     42 H          -1.6573    9.7147    3.1615 H       1  UNL1        0.0638
     43 H           0.9794    2.2396   -0.0322 H       1  UNL1        0.0381
     44 H          -0.5777    2.2450   -0.8946 H       1  UNL1        0.0381
     45 H           0.2844    0.0943   -2.4645 H       1  UNL1        0.0340
     46 H           1.8415    0.0889   -1.6021 H       1  UNL1        0.0340
     47 H           0.9010   -1.4150   -1.7502 H       1  UNL1        0.0340
     48 N          -2.8851    2.3612    2.4447 N.4     1  UNL1        0.2383
     49 H          -2.3782    1.9769    3.2506 H       1  UNL1        0.2036
@<TRIPOS>UNITY_ATOM_ATTR
48 1
charge 1
@<TRIPOS>BOND
     1     1     2    1
     2     1    26    1
     3     1    27    1
     4     1    28    1
     5     2     3    1
     6     2    29    1
     7     2    30    1
     8     3    31    1
     9     3    32    1
    10     3    48    1
    11     4     5    1
    12     4    33    1
    13     4    34    1
    14     4    48    1
    15     5     6    1
    16     5     7    1
    17     5    23    1
    18     7     8    1
    19     7    35    1
    20     7    36    1
    21     8     9    1
    22     8    19    1
    23     8    10    1
    24    10    11    1
    25    10    12    1
    26    10    48    1
    27    12    13    1
    28    12    37    1
    29    12    38    1
    30    13    18   ar
    31    13    14   ar
    32    14    15   ar
    33    14    39    1
    34    15    16    1
    35    15    17   ar
    36    17    22   ar
    37    17    18   ar
    38    18    19   ar
    39    19    20   ar
    40    20    21   ar
    41    20    40    1
    42    21    22   ar
    43    21    41    1
    44    22    42    1
    45    23    24    1
    46    23    43    1
    47    23    44    1
    48    24    25    1
    49    25    45    1
    50    25    46    1
    51    25    47    1
    52    48    49    1
