@<TRIPOS>MOLECULE
ZINC11679768
 77 81 0 0 0
SMALL
GASTEIGER

@<TRIPOS>ATOM
      1 C           3.5085    2.2364   -1.3585 C.3     1  UNL1       -0.0648
      2 C           2.1147    1.6091   -1.2892 C.3     1  UNL1       -0.0480
      3 C           1.4194    2.0525   -0.0005 C.3     1  UNL1        0.0022
      4 H           1.4094    3.1412    0.0515 H       1  UNL1        0.0355
      5 C           2.1749    1.4905    1.2067 C.3     1  UNL1       -0.0282
      6 C           2.9910   -0.5621    2.2116 C.3     1  UNL1       -0.0272
      7 C           3.2443   -2.0325    1.8777 C.3     1  UNL1        0.0133
      8 C           1.9440   -2.7197    1.5472 C.ar    1  UNL1       -0.0302
      9 C           1.9086   -4.1064    1.5620 C.ar    1  UNL1       -0.0125
     10 C           0.7385   -4.7801    1.2616 C.ar    1  UNL1        0.1618
     11 C          -0.4090   -4.0597    0.9421 C.ar    1  UNL1        0.1620
     12 C          -0.3689   -2.6773    0.9299 C.ar    1  UNL1       -0.0075
     13 C           0.8277   -2.0053    1.2200 C.ar    1  UNL1        0.0072
     14 C           0.7979   -0.5006    1.2109 C.3     1  UNL1        0.0056
     15 H           0.3203   -0.1462    2.1244 H       1  UNL1        0.0904
     16 C           0.0021   -0.0041    0.0020 C.3     1  UNL1       -0.0018
     17 C          -0.0187    1.5275    0.0104 C.3     1  UNL1       -0.0226
     18 H          -0.5278    1.8796    0.9076 H       1  UNL1        0.0309
     19 C          -0.7572    2.0352   -1.2296 C.3     1  UNL1       -0.0019
     20 C          -2.2254    1.6105   -1.1583 C.3     1  UNL1        0.0039
     21 H          -2.6535    1.9528   -0.2162 H       1  UNL1        0.0904
     22 C          -2.9799    2.2354   -2.3028 C.ar    1  UNL1        0.0071
     23 C          -2.7165    3.5608   -2.6192 C.ar    1  UNL1       -0.0075
     24 C          -3.3863    4.1787   -3.6596 C.ar    1  UNL1        0.1620
     25 C          -4.3303    3.4652   -4.3927 C.ar    1  UNL1        0.1618
     26 C          -4.5887    2.1440   -4.0744 C.ar    1  UNL1       -0.0125
     27 C          -3.9133    1.5286   -3.0306 C.ar    1  UNL1       -0.0302
     28 C          -4.2276    0.0863   -2.7250 C.3     1  UNL1        0.0132
     29 C          -3.7152   -0.2758   -1.3308 C.3     1  UNL1       -0.0290
     30 O          -4.9950    4.0639   -5.4170 O.3     1  UNL1       -0.4914
     31 C          -5.9488    3.2688   -6.1242 C.3     1  UNL1        0.0790
     32 O          -3.1241    5.4777   -3.9648 O.3     1  UNL1       -0.4914
     33 C          -2.1430    6.1458   -3.1691 C.3     1  UNL1        0.0790
     34 O          -1.5642   -4.7122    0.6439 O.3     1  UNL1       -0.4914
     35 C          -2.7009   -3.9066    0.3259 C.3     1  UNL1        0.0790
     36 O           0.7091   -6.1396    1.2786 O.3     1  UNL1       -0.4914
     37 C           1.9248   -6.8106    1.6159 C.3     1  UNL1        0.0790
     38 H           4.0957    1.9129   -0.4990 H       1  UNL1        0.0230
     39 H           4.0039    1.9206   -2.2766 H       1  UNL1        0.0230
     40 H           3.4189    3.3227   -1.3492 H       1  UNL1        0.0230
     41 H           2.2043    0.5228   -1.2985 H       1  UNL1        0.0267
     42 H           1.5275    1.9326   -2.1487 H       1  UNL1        0.0267
     43 H           1.6899    1.8208    2.1252 H       1  UNL1        0.0817
     44 H           3.2046    1.8478    1.1903 H       1  UNL1        0.0817
     45 H           3.9411   -0.0313    2.2712 H       1  UNL1        0.0818
     46 H           2.4684   -0.4852    3.1651 H       1  UNL1        0.0818
     47 H           3.9157   -2.0983    1.0216 H       1  UNL1        0.0365
     48 H           3.7031   -2.5242    2.7355 H       1  UNL1        0.0365
     49 H           2.8000   -4.6634    1.8100 H       1  UNL1        0.0658
     50 H          -1.2586   -2.1170    0.6829 H       1  UNL1        0.0660
     51 H          -1.0186   -0.3827    0.0571 H       1  UNL1        0.0326
     52 H           0.4727   -0.3571   -0.9156 H       1  UNL1        0.0326
     53 H          -0.6951    3.1227   -1.2696 H       1  UNL1        0.0326
     54 H          -0.2996    1.6119   -2.1238 H       1  UNL1        0.0326
     55 H          -1.9841    4.1132   -2.0492 H       1  UNL1        0.0660
     56 H          -5.3208    1.5885   -4.6417 H       1  UNL1        0.0658
     57 H          -3.7464   -0.5534   -3.4648 H       1  UNL1        0.0365
     58 H          -5.3065   -0.0634   -2.7641 H       1  UNL1        0.0365
     59 H          -3.7846   -1.3536   -1.1836 H       1  UNL1        0.0817
     60 H          -4.3107    0.2388   -0.5766 H       1  UNL1        0.0817
     61 H          -5.4480    2.4065   -6.5643 H       1  UNL1        0.0660
     62 H          -6.7204    2.9276   -5.4341 H       1  UNL1        0.0660
     63 H          -6.4055    3.8657   -6.9136 H       1  UNL1        0.0660
     64 H          -1.1889    5.6261   -3.2565 H       1  UNL1        0.0660
     65 H          -2.0307    7.1726   -3.5172 H       1  UNL1        0.0660
     66 H          -2.4611    6.1483   -2.1265 H       1  UNL1        0.0660
     67 H          -3.5532   -4.5504    0.1086 H       1  UNL1        0.0660
     68 H          -2.9384   -3.2629    1.1728 H       1  UNL1        0.0660
     69 H          -2.4781   -3.2920   -0.5463 H       1  UNL1        0.0660
     70 H           1.7635   -7.8884    1.5925 H       1  UNL1        0.0660
     71 H           2.6989   -6.5434    0.8965 H       1  UNL1        0.0660
     72 H           2.2393   -6.5119    2.6159 H       1  UNL1        0.0660
     73 N           2.1751    0.0125    1.1215 N.4     1  UNL1        0.2411
     74 H           2.5781   -0.2680    0.2198 H       1  UNL1        0.2040
     75 N          -2.3058    0.1450   -1.2251 N.4     1  UNL1        0.2327
     76 H          -1.8930   -0.2578   -0.3756 H       1  UNL1        0.2020
     77 H          -1.7886   -0.1873   -2.0475 H       1  UNL1        0.2020
@<TRIPOS>UNITY_ATOM_ATTR
73 1
charge 1
75 1
charge 1
@<TRIPOS>BOND
     1     1     2    1
     2     1    38    1
     3     1    39    1
     4     1    40    1
     5     2     3    1
     6     2    41    1
     7     2    42    1
     8     3     4    1
     9     3    17    1
    10     3     5    1
    11     5    43    1
    12     5    44    1
    13     5    73    1
    14     6     7    1
    15     6    45    1
    16     6    46    1
    17     6    73    1
    18     7     8    1
    19     7    47    1
    20     7    48    1
    21     8    13   ar
    22     8     9   ar
    23     9    10   ar
    24     9    49    1
    25    10    11   ar
    26    10    36    1
    27    11    12   ar
    28    11    34    1
    29    12    13   ar
    30    12    50    1
    31    13    14    1
    32    14    15    1
    33    14    16    1
    34    14    73    1
    35    16    17    1
    36    16    51    1
    37    16    52    1
    38    17    18    1
    39    17    19    1
    40    19    20    1
    41    19    53    1
    42    19    54    1
    43    20    21    1
    44    20    22    1
    45    20    75    1
    46    22    27   ar
    47    22    23   ar
    48    23    24   ar
    49    23    55    1
    50    24    25   ar
    51    24    32    1
    52    25    26   ar
    53    25    30    1
    54    26    27   ar
    55    26    56    1
    56    27    28    1
    57    28    29    1
    58    28    57    1
    59    28    58    1
    60    29    59    1
    61    29    60    1
    62    29    75    1
    63    30    31    1
    64    31    61    1
    65    31    62    1
    66    31    63    1
    67    32    33    1
    68    33    64    1
    69    33    65    1
    70    33    66    1
    71    34    35    1
    72    35    67    1
    73    35    68    1
    74    35    69    1
    75    36    37    1
    76    37    70    1
    77    37    71    1
    78    37    72    1
    79    73    74    1
    80    75    76    1
    81    75    77    1
