@<TRIPOS>MOLECULE
ZINC00897232
 31 32 0 0 0
SMALL
GASTEIGER

@<TRIPOS>ATOM
      1 C           1.6856    7.7816    1.1273 C.3     1  UNL1        0.0110
      2 N           1.4278    6.6277    0.2622 N.3     1  UNL1       -0.1583
      3 C           2.5176    5.8970   -0.4158 C.3     1  UNL1        0.1074
      4 H           3.4777    6.3320   -0.1381 H       1  UNL1        0.0696
      5 N           2.4742    4.4980    0.0024 N.pl3   1  UNL1       -0.3248
      6 C           1.3145    3.7279   -0.0202 C.ar    1  UNL1        0.0565
      7 C           1.4312    2.3388   -0.0346 C.ar    1  UNL1       -0.0186
      8 C           0.3009    1.5469   -0.0392 C.ar    1  UNL1        0.0691
      9 C          -0.9564    2.1260   -0.0294 C.ar    1  UNL1        0.1252
     10 C          -1.0793    3.5033   -0.0088 C.ar    1  UNL1       -0.0057
     11 C           0.0484    4.2976   -0.0129 C.ar    1  UNL1        0.1282
     12 S          -0.1150    6.0576   -0.0173 S.O2    1  UNL1        0.0641
     13 O          -0.8978    6.4048    1.1166 O.2     1  UNL1       -0.1527
     14 O          -0.4656    6.4400   -1.3402 O.2     1  UNL1       -0.1527
     15 S          -2.3965    1.1108   -0.0357 S.O2    1  UNL1        0.0574
     16 O          -2.2091    0.1339    0.9791 O.2     1  UNL1       -0.1532
     17 O          -3.5129    1.9897   -0.0502 O.2     1  UNL1       -0.1532
     18 N          -2.4157    0.2973   -1.4780 N.3     1  UNL1       -0.2035
     19 CL          0.4564   -0.1819   -0.0648 Cl      1  UNL1       -0.0815
     20 C           2.3295    5.9856   -1.9316 C.3     1  UNL1        0.0559
     21 CL          3.7346    5.2148   -2.7577 Cl      1  UNL1       -0.1221
     22 H           1.6653    8.6941    0.5314 H       1  UNL1        0.0409
     23 H           0.9186    7.8351    1.8999 H       1  UNL1        0.0409
     24 H           2.6647    7.6742    1.5941 H       1  UNL1        0.0409
     25 H           3.2954    4.0844    0.3114 H       1  UNL1        0.1477
     26 H           2.4093    1.8809   -0.0425 H       1  UNL1        0.0652
     27 H          -2.0591    3.9575    0.0053 H       1  UNL1        0.0658
     28 H          -2.8213   -0.5821   -1.5334 H       1  UNL1        0.1442
     29 H          -2.0215    0.7002   -2.2673 H       1  UNL1        0.1442
     30 H           1.4129    5.4682   -2.2149 H       1  UNL1        0.0462
     31 H           2.2627    7.0322   -2.2289 H       1  UNL1        0.0462
@<TRIPOS>BOND
     1     1     2    1
     2     1    22    1
     3     1    23    1
     4     1    24    1
     5     2    12    1
     6     2     3    1
     7     3     4    1
     8     3     5    1
     9     3    20    1
    10     5     6    1
    11     5    25    1
    12     6    11   ar
    13     6     7   ar
    14     7     8   ar
    15     7    26    1
    16     8     9   ar
    17     8    19    1
    18     9    10   ar
    19     9    15    1
    20    10    11   ar
    21    10    27    1
    22    11    12    1
    23    12    13    2
    24    12    14    2
    25    15    16    2
    26    15    17    2
    27    15    18    1
    28    18    28    1
    29    18    29    1
    30    20    21    1
    31    20    30    1
    32    20    31    1
