@<TRIPOS>MOLECULE
ZINC00057493
 27 28 0 0 0
SMALL
GASTEIGER

@<TRIPOS>ATOM
      1 C          -0.7279   -4.0996   -0.0134 C.3     1  UNL1       -0.0140
      2 C          -0.3317   -2.6456   -0.0092 C.ar    1  UNL1        0.1007
      3 N           0.8649   -2.0943   -0.0171 N.ar    1  UNL1       -0.1449
      4 N           1.0288   -0.8437   -0.0119 N.ar    1  UNL1       -0.1245
      5 C           0.0021   -0.0041    0.0020 C.ar    1  UNL1        0.2006
      6 S          -1.3526   -1.1749    0.0160 S.2     1  UNL1       -0.0345
      7 N          -0.0167    1.3828    0.0096 N.pl3   1  UNL1       -0.1924
      8 S           1.4060    2.2302    0.0006 S.O2    1  UNL1        0.0739
      9 O           1.0580    3.6078   -0.0158 O.2     1  UNL1       -0.1499
     10 O           2.2231    1.6629    1.0154 O.2     1  UNL1       -0.1499
     11 C           2.2030    1.8938   -1.5344 C.ar    1  UNL1        0.1087
     12 C           3.0800    0.8296   -1.6377 C.ar    1  UNL1       -0.0333
     13 C           3.7020    0.5598   -2.8409 C.ar    1  UNL1       -0.0392
     14 C           3.4546    1.3656   -3.9450 C.ar    1  UNL1        0.0247
     15 C           2.5774    2.4372   -3.8362 C.ar    1  UNL1       -0.0392
     16 C           1.9544    2.6981   -2.6316 C.ar    1  UNL1       -0.0333
     17 N           4.0860    1.0987   -5.1619 N.pl3   1  UNL1       -0.3580
     18 H          -0.8137   -4.4558    1.0131 H       1  UNL1        0.0298
     19 H          -1.6870   -4.2133   -0.5188 H       1  UNL1        0.0298
     20 H           0.0302   -4.6813   -0.5377 H       1  UNL1        0.0298
     21 H          -0.8633    1.8563    0.0162 H       1  UNL1        0.1758
     22 H           3.2755    0.2064   -0.7777 H       1  UNL1        0.0638
     23 H           4.3834   -0.2741   -2.9221 H       1  UNL1        0.0636
     24 H           2.3831    3.0659   -4.6926 H       1  UNL1        0.0636
     25 H           1.2720    3.5308   -2.5464 H       1  UNL1        0.0638
     26 H           3.9122    1.6619   -5.9323 H       1  UNL1        0.1423
     27 H           4.6983    0.3501   -5.2367 H       1  UNL1        0.1423
@<TRIPOS>BOND
     1     1     2    1
     2     1    18    1
     3     1    19    1
     4     1    20    1
     5     2     6   ar
     6     2     3   ar
     7     3     4   ar
     8     4     5   ar
     9     5     6   ar
    10     5     7    1
    11     7     8    1
    12     7    21    1
    13     8     9    2
    14     8    10    2
    15     8    11    1
    16    11    16   ar
    17    11    12   ar
    18    12    13   ar
    19    12    22    1
    20    13    14   ar
    21    13    23    1
    22    14    15   ar
    23    14    17    1
    24    15    16   ar
    25    15    24    1
    26    16    25    1
    27    17    26    1
    28    17    27    1
