@<TRIPOS>MOLECULE
ZINC00075126
 41 44 0 0 0
SMALL
GASTEIGER

@<TRIPOS>ATOM
      1 C          -1.2104   -0.8990    0.0080 C.3     1  UNL1       -0.0063
      2 C           0.0021   -0.0041    0.0020 C.ar    1  UNL1        0.1065
      3 N           1.2437   -0.4056   -0.0120 N.ar    1  UNL1       -0.2409
      4 C           2.0542    0.6631   -0.0140 C.ar    1  UNL1        0.0457
      5 C           1.2857    1.7689   -0.0007 C.ar    1  UNL1        0.0243
      6 N          -0.0162    1.3462    0.0094 N.ar    1  UNL1       -0.3338
      7 C          -1.2071    2.1994    0.0200 C.3     1  UNL1        0.0342
      8 C          -1.6878    2.3864    1.4605 C.3     1  UNL1        0.0405
      9 H          -1.8347    1.4914    1.8817 H       1  UNL1        0.0398
     10 C          -3.0021    3.1670    1.4593 C.3     1  UNL1       -0.0362
     11 C          -3.5057    3.3710    2.8933 C.3     1  UNL1       -0.0109
     12 C          -2.4141    4.0552    3.6814 C.ar    1  UNL1        0.0300
     13 C          -1.0717    3.9280    3.3410 C.ar    1  UNL1        0.0461
     14 C          -0.3255    4.7201    4.3045 C.ar    1  UNL1        0.0106
     15 C           1.0341    4.9797    4.4725 C.ar    1  UNL1       -0.0519
     16 C           1.3887    5.8009    5.5290 C.ar    1  UNL1       -0.0611
     17 C           0.4428    6.3426    6.3822 C.ar    1  UNL1       -0.0598
     18 C          -0.9114    6.0975    6.2327 C.ar    1  UNL1       -0.0376
     19 C          -1.2953    5.2736    5.1770 C.ar    1  UNL1        0.0497
     20 N          -2.5291    4.8442    4.7624 N.ar    1  UNL1       -0.3462
     21 C          -3.7961    5.1960    5.4083 C.3     1  UNL1        0.0121
     22 C          -0.6389    3.1432    2.2454 C.2     1  UNL1        0.1702
     23 O           0.5361    3.0782    1.9472 O.2     1  UNL1       -0.2916
     24 H          -1.5119   -1.1092   -1.0181 H       1  UNL1        0.0307
     25 H          -0.9697   -1.8335    0.5147 H       1  UNL1        0.0307
     26 H          -2.0266   -0.4014    0.5318 H       1  UNL1        0.0307
     27 H           3.1339    0.6407   -0.0250 H       1  UNL1        0.0845
     28 H           1.6303    2.7924    0.0010 H       1  UNL1        0.0825
     29 H          -0.9622    3.1705   -0.4103 H       1  UNL1        0.0499
     30 H          -1.9957    1.7299   -0.5681 H       1  UNL1        0.0499
     31 H          -2.8437    4.1387    0.9914 H       1  UNL1        0.0276
     32 H          -3.7502    2.6122    0.8932 H       1  UNL1        0.0276
     33 H          -4.3994    3.9950    2.8843 H       1  UNL1        0.0328
     34 H          -3.7356    2.4053    3.3435 H       1  UNL1        0.0328
     35 H           1.7758    4.5600    3.8092 H       1  UNL1        0.0624
     36 H           2.4325    6.0255    5.6919 H       1  UNL1        0.0618
     37 H           0.7722    6.9778    7.1912 H       1  UNL1        0.0618
     38 H          -1.6390    6.5262    6.9059 H       1  UNL1        0.0638
     39 H          -4.0282    4.4600    6.1780 H       1  UNL1        0.0456
     40 H          -3.7103    6.1828    5.8633 H       1  UNL1        0.0456
     41 H          -4.5925    5.2070    4.6642 H       1  UNL1        0.0456
@<TRIPOS>BOND
     1     1     2    1
     2     1    24    1
     3     1    25    1
     4     1    26    1
     5     2     6   ar
     6     2     3   ar
     7     3     4   ar
     8     4     5   ar
     9     4    27    1
    10     5     6   ar
    11     5    28    1
    12     6     7    1
    13     7     8    1
    14     7    29    1
    15     7    30    1
    16     8     9    1
    17     8    22    1
    18     8    10    1
    19    10    11    1
    20    10    31    1
    21    10    32    1
    22    11    12    1
    23    11    33    1
    24    11    34    1
    25    12    20   ar
    26    12    13   ar
    27    13    14   ar
    28    13    22    1
    29    14    19   ar
    30    14    15   ar
    31    15    16   ar
    32    15    35    1
    33    16    17   ar
    34    16    36    1
    35    17    18   ar
    36    17    37    1
    37    18    19   ar
    38    18    38    1
    39    19    20   ar
    40    20    21    1
    41    21    39    1
    42    21    40    1
    43    21    41    1
    44    22    23    2
