@<TRIPOS>MOLECULE
ZINC01542929
 58 61 0 0 0
SMALL
GASTEIGER

@<TRIPOS>ATOM
      1 C          -0.0127    1.0858    0.0080 C.3     1  UNL1       -0.0427
      2 C          -0.0162    1.0911    2.4293 C.3     1  UNL1       -0.0303
      3 C          -0.1268   -0.4321    2.5210 C.3     1  UNL1        0.0036
      4 C           0.5857   -0.9200    3.7841 C.3     1  UNL1        0.0221
      5 N           0.4798   -2.3786    3.8719 N.pl3   1  UNL1       -0.2994
      6 C          -0.5886   -2.9880    4.5382 C.ar    1  UNL1        0.0372
      7 C          -1.8769   -2.6848    4.1068 C.ar    1  UNL1       -0.0401
      8 C          -2.9705   -3.2940    4.6845 C.ar    1  UNL1       -0.0600
      9 C          -2.7725   -4.2135    5.6987 C.ar    1  UNL1       -0.0614
     10 C          -1.5101   -4.4948    6.1326 C.ar    1  UNL1       -0.0568
     11 C          -0.3880   -3.8732    5.5798 C.ar    1  UNL1       -0.0257
     12 C           0.9261   -4.2526    6.2254 C.3     1  UNL1       -0.0219
     13 C           2.1172   -3.5257    5.6250 C.3     1  UNL1       -0.0219
     14 C           2.2893   -3.8566    4.1644 C.ar    1  UNL1       -0.0257
     15 C           1.4466   -3.2105    3.2975 C.ar    1  UNL1        0.0372
     16 C           1.5625   -3.3944    1.9300 C.ar    1  UNL1       -0.0401
     17 C           2.5311   -4.2648    1.4568 C.ar    1  UNL1       -0.0600
     18 C           3.3614   -4.9347    2.3369 C.ar    1  UNL1       -0.0614
     19 C           3.2438   -4.7338    3.7051 C.ar    1  UNL1       -0.0568
     20 C          -0.8223    3.0235    1.2133 C.3     1  UNL1        0.0321
     21 C          -1.7346    3.4489    0.0917 C.2     1  UNL1        0.2073
     22 O          -2.2339    2.6149   -0.6333 O.2     1  UNL1       -0.2864
     23 C          -2.0194    4.8759   -0.1235 C.ar    1  UNL1        0.0229
     24 C          -1.4497    5.8404    0.7145 C.ar    1  UNL1       -0.0497
     25 C          -1.7165    7.1759    0.5033 C.ar    1  UNL1       -0.0427
     26 C          -2.5562    7.5634   -0.5287 C.ar    1  UNL1        0.0410
     27 C          -3.1285    6.6132   -1.3591 C.ar    1  UNL1       -0.0427
     28 C          -2.8658    5.2745   -1.1637 C.ar    1  UNL1       -0.0497
     29 CL         -2.8923    9.2475   -0.7827 Cl      1  UNL1       -0.0835
     30 H           0.0021   -0.0041    0.0020 H       1  UNL1        0.0778
     31 H           1.0099    1.4631    0.0003 H       1  UNL1        0.0778
     32 H          -0.5399    1.4469   -0.8751 H       1  UNL1        0.0778
     33 H           1.0347    1.3772    2.3871 H       1  UNL1        0.0815
     34 H          -0.4808    1.5426    3.3059 H       1  UNL1        0.0815
     35 H          -1.1777   -0.7182    2.5632 H       1  UNL1        0.0332
     36 H           0.3378   -0.8836    1.6444 H       1  UNL1        0.0332
     37 H           1.6366   -0.6339    3.7419 H       1  UNL1        0.0470
     38 H           0.1211   -0.4686    4.6607 H       1  UNL1        0.0470
     39 H          -2.0209   -1.9663    3.3135 H       1  UNL1        0.0636
     40 H          -3.9693   -3.0565    4.3491 H       1  UNL1        0.0618
     41 H          -3.6199   -4.7124    6.1453 H       1  UNL1        0.0618
     42 H          -1.3778   -5.2119    6.9293 H       1  UNL1        0.0621
     43 H           1.0762   -5.3260    6.1101 H       1  UNL1        0.0317
     44 H           0.8726   -4.0190    7.2887 H       1  UNL1        0.0317
     45 H           3.0194   -3.8146    6.1641 H       1  UNL1        0.0317
     46 H           1.9678   -2.4512    5.7313 H       1  UNL1        0.0317
     47 H           0.9108   -2.8707    1.2463 H       1  UNL1        0.0636
     48 H           2.6388   -4.4208    0.3936 H       1  UNL1        0.0618
     49 H           4.1058   -5.6188    1.9571 H       1  UNL1        0.0618
     50 H           3.8890   -5.2565    4.3957 H       1  UNL1        0.0621
     51 H          -1.1992    3.3346    2.0857 H       1  UNL1        0.0899
     52 H           0.1618    3.4698    1.0703 H       1  UNL1        0.0899
     53 H          -0.7987    5.5396    1.5219 H       1  UNL1        0.0625
     54 H          -1.2734    7.9221    1.1462 H       1  UNL1        0.0632
     55 H          -3.7817    6.9224   -2.1616 H       1  UNL1        0.0632
     56 H          -3.3119    4.5350   -1.8121 H       1  UNL1        0.0625
     57 N          -0.7268    1.5485    1.2166 N.4     1  UNL1        0.2387
     58 H          -1.6743    1.1530    1.2161 H       1  UNL1        0.2035
@<TRIPOS>UNITY_ATOM_ATTR
57 1
charge 1
@<TRIPOS>BOND
     1     1    30    1
     2     1    31    1
     3     1    32    1
     4     1    57    1
     5     2     3    1
     6     2    33    1
     7     2    34    1
     8     2    57    1
     9     3     4    1
    10     3    35    1
    11     3    36    1
    12     4     5    1
    13     4    37    1
    14     4    38    1
    15     5    15    1
    16     5     6    1
    17     6    11   ar
    18     6     7   ar
    19     7     8   ar
    20     7    39    1
    21     8     9   ar
    22     8    40    1
    23     9    10   ar
    24     9    41    1
    25    10    11   ar
    26    10    42    1
    27    11    12    1
    28    12    13    1
    29    12    43    1
    30    12    44    1
    31    13    14    1
    32    13    45    1
    33    13    46    1
    34    14    19   ar
    35    14    15   ar
    36    15    16   ar
    37    16    17   ar
    38    16    47    1
    39    17    18   ar
    40    17    48    1
    41    18    19   ar
    42    18    49    1
    43    19    50    1
    44    20    21    1
    45    20    51    1
    46    20    52    1
    47    20    57    1
    48    21    22    2
    49    21    23    1
    50    23    28   ar
    51    23    24   ar
    52    24    25   ar
    53    24    53    1
    54    25    26   ar
    55    25    54    1
    56    26    27   ar
    57    26    29    1
    58    27    28   ar
    59    27    55    1
    60    28    56    1
    61    57    58    1
