@<TRIPOS>MOLECULE
ZINC03831428
 50 52 0 0 0
SMALL
GASTEIGER

@<TRIPOS>ATOM
      1 C           1.3818    6.0870    7.7667 C.3     1  UNL1       -0.0394
      2 C           1.3237    4.7789    7.0208 C.ar    1  UNL1       -0.0454
      3 C           0.5007    3.7876    7.4628 C.ar    1  UNL1       -0.0311
      4 C           0.4414    2.5622    6.7706 C.ar    1  UNL1        0.0886
      5 C           1.2469    2.3773    5.6239 C.ar    1  UNL1        0.0694
      6 C           2.0738    3.4103    5.1911 C.ar    1  UNL1       -0.0329
      7 C           2.1108    4.5975    5.8884 C.ar    1  UNL1       -0.0455
      8 C           3.0129    5.7103    5.4204 C.3     1  UNL1       -0.0394
      9 N           1.2021    1.1890    4.9259 N.ar    1  UNL1       -0.3195
     10 C           0.3759    0.2026    5.3742 C.ar    1  UNL1        0.1705
     11 N           0.2779   -0.9675    4.7657 N.ar    1  UNL1       -0.1733
     12 C          -0.5342   -1.9205    5.2162 C.ar    1  UNL1        0.3505
     13 O          -0.5737   -2.9738    4.6048 O.2     1  UNL1       -0.2446
     14 N          -1.3120   -1.7936    6.3007 N.ar    1  UNL1       -0.2717
     15 H          -1.8967   -2.5565    6.5766 H       1  UNL1        0.1735
     16 C          -1.3215   -0.6534    7.0294 C.ar    1  UNL1        0.2817
     17 O          -2.0261   -0.5356    8.0131 O.2     1  UNL1       -0.2653
     18 C          -0.4378    0.4441    6.5772 C.ar    1  UNL1        0.1712
     19 N          -0.3691    1.5890    7.2070 N.ar    1  UNL1       -0.2368
     20 C           2.0285    0.9894    3.7328 C.3     1  UNL1        0.0538
     21 C           1.2513    1.4372    2.4933 C.3     1  UNL1        0.1014
     22 H           0.2968    0.9123    2.4537 H       1  UNL1        0.0638
     23 C           2.0636    1.1140    1.2377 C.3     1  UNL1        0.1106
     24 H           3.0180    1.6389    1.2773 H       1  UNL1        0.0646
     25 C           1.2864    1.5618   -0.0018 C.3     1  UNL1        0.1070
     26 H           1.1856    2.6471    0.0050 H       1  UNL1        0.0643
     27 C           2.0397    1.1274   -1.2607 C.3     1  UNL1        0.0793
     28 O           1.3761    1.6453   -2.4154 O.3     1  UNL1       -0.3646
     29 P           1.8958    1.3834   -3.9166 P.3     1  UNL1       -0.0150
     30 O           2.0263   -0.0728   -4.1465 O.2     1  UNL1       -0.6377
     31 O          -0.0110    0.9628    0.0073 O.3     1  UNL1       -0.3869
     32 O           2.2968   -0.2943    1.1706 O.3     1  UNL1       -0.3865
     33 O           1.0180    2.8454    2.5603 O.3     1  UNL1       -0.3874
     34 H           2.1547    6.0341    8.5335 H       1  UNL1        0.0278
     35 H           1.6154    6.8923    7.0703 H       1  UNL1        0.0278
     36 H           0.4172    6.2808    8.2359 H       1  UNL1        0.0278
     37 H          -0.1060    3.9411    8.3430 H       1  UNL1        0.0642
     38 H           2.6891    3.2792    4.3132 H       1  UNL1        0.0641
     39 H           3.9894    5.6100    5.8942 H       1  UNL1        0.0278
     40 H           3.1268    5.6546    4.3378 H       1  UNL1        0.0278
     41 H           2.5749    6.6711    5.6907 H       1  UNL1        0.0278
     42 H           2.2836   -0.0662    3.6399 H       1  UNL1        0.0519
     43 H           2.9420    1.5775    3.8210 H       1  UNL1        0.0519
     44 H           3.0592    1.5115   -1.2247 H       1  UNL1        0.0589
     45 H           2.0631    0.0389   -1.3127 H       1  UNL1        0.0589
     46 H           0.0021   -0.0041    0.0020 H       1  UNL1        0.2100
     47 H           1.4895   -0.8253    1.1328 H       1  UNL1        0.2100
     48 H           1.8253    3.3765    2.5982 H       1  UNL1        0.2100
     49 O           0.8407    1.9998   -4.9649 O.co2   1  UNL1       -0.5770
     50 O           3.3285    2.0893   -4.1193 O.co2   1  UNL1       -0.5770
@<TRIPOS>UNITY_ATOM_ATTR
49 1
charge -1
50 1
charge -1
@<TRIPOS>BOND
     1     1     2    1
     2     1    34    1
     3     1    35    1
     4     1    36    1
     5     2     7   ar
     6     2     3   ar
     7     3     4   ar
     8     3    37    1
     9     4    19   ar
    10     4     5   ar
    11     5     6   ar
    12     5     9   ar
    13     6     7   ar
    14     6    38    1
    15     7     8    1
    16     8    39    1
    17     8    40    1
    18     8    41    1
    19     9    10   ar
    20     9    20    1
    21    10    18    1
    22    10    11   ar
    23    11    12   ar
    24    12    13    2
    25    12    14   ar
    26    14    15    1
    27    14    16   ar
    28    16    17    2
    29    16    18   ar
    30    18    19   ar
    31    20    21    1
    32    20    42    1
    33    20    43    1
    34    21    22    1
    35    21    23    1
    36    21    33    1
    37    23    24    1
    38    23    25    1
    39    23    32    1
    40    25    26    1
    41    25    27    1
    42    25    31    1
    43    27    28    1
    44    27    44    1
    45    27    45    1
    46    28    29    1
    47    29    30    2
    48    29    49    1
    49    29    50    1
    50    31    46    1
    51    32    47    1
    52    33    48    1
