@<TRIPOS>MOLECULE
ZINC01847743
 49 50 0 0 0
SMALL
GASTEIGER

@<TRIPOS>ATOM
      1 C          -3.6956   -3.0308   -3.1612 C.3     1  UNL1       -0.0245
      2 C          -2.9866   -3.4156   -1.8611 C.3     1  UNL1       -0.0347
      3 C          -4.7793   -2.5725   -0.4689 C.3     1  UNL1       -0.0347
      4 C          -5.2413   -1.2856    0.2176 C.3     1  UNL1       -0.0245
      5 C          -2.5166   -2.6550    0.3890 C.3     1  UNL1        0.0032
      6 C          -1.1310   -2.0554    0.1414 C.3     1  UNL1        0.1320
      7 O          -1.2507   -0.6202   -0.0438 O.3     1  UNL1       -0.4586
      8 C          -0.1099    0.0742   -0.1781 C.2     1  UNL1        0.3179
      9 O           0.9482   -0.5068   -0.2322 O.2     1  UNL1       -0.2498
     10 C          -0.1487    1.5784   -0.2613 C.3     1  UNL1        0.0926
     11 C          -1.0616    2.0188   -1.4190 C.3     1  UNL1       -0.0332
     12 C          -0.1775    2.8194   -2.3974 C.3     1  UNL1       -0.0517
     13 C           1.2582    2.3116   -2.1144 C.3     1  UNL1       -0.0517
     14 C           1.2584    2.1267   -0.5766 C.3     1  UNL1       -0.0332
     15 C          -0.6477    2.1543    1.0388 C.ar    1  UNL1       -0.0306
     16 C          -0.8779    1.3237    2.1195 C.ar    1  UNL1       -0.0575
     17 C          -1.3311    1.8526    3.3136 C.ar    1  UNL1       -0.0615
     18 C          -1.5637    3.2108    3.4238 C.ar    1  UNL1       -0.0617
     19 C          -1.3389    4.0406    2.3414 C.ar    1  UNL1       -0.0615
     20 C          -0.8807    3.5124    1.1489 C.ar    1  UNL1       -0.0575
     21 H          -4.7745   -3.0558   -3.0078 H       1  UNL1        0.0281
     22 H          -3.3938   -2.0258   -3.4560 H       1  UNL1        0.0281
     23 H          -3.4238   -3.7367   -3.9459 H       1  UNL1        0.0281
     24 H          -1.9077   -3.3906   -2.0145 H       1  UNL1        0.0812
     25 H          -3.2885   -4.4206   -1.5663 H       1  UNL1        0.0812
     26 H          -5.3559   -2.7248   -1.3813 H       1  UNL1        0.0812
     27 H          -4.9318   -3.4175    0.2026 H       1  UNL1        0.0812
     28 H          -4.6200   -1.0978    1.0933 H       1  UNL1        0.0281
     29 H          -5.1516   -0.4507   -0.4774 H       1  UNL1        0.0281
     30 H          -6.2814   -1.3915    0.5259 H       1  UNL1        0.0281
     31 H          -2.4194   -3.7203    0.5980 H       1  UNL1        0.0848
     32 H          -2.9804   -2.1584    1.2413 H       1  UNL1        0.0848
     33 H          -0.6963   -2.5020   -0.7529 H       1  UNL1        0.0752
     34 H          -0.4886   -2.2588    0.9981 H       1  UNL1        0.0752
     35 H          -1.4766    1.1446   -1.9207 H       1  UNL1        0.0279
     36 H          -1.8660    2.6498   -1.0409 H       1  UNL1        0.0279
     37 H          -0.2518    3.8873   -2.1923 H       1  UNL1        0.0266
     38 H          -0.4608    2.6074   -3.4284 H       1  UNL1        0.0266
     39 H           1.9969    3.0550   -2.4142 H       1  UNL1        0.0266
     40 H           1.4382    1.3617   -2.6178 H       1  UNL1        0.0266
     41 H           1.4159    3.0827   -0.0774 H       1  UNL1        0.0279
     42 H           2.0230    1.4101   -0.2766 H       1  UNL1        0.0279
     43 H          -0.7002    0.2620    2.0321 H       1  UNL1        0.0621
     44 H          -1.5071    1.2042    4.1592 H       1  UNL1        0.0618
     45 H          -1.9213    3.6235    4.3556 H       1  UNL1        0.0618
     46 H          -1.5209    5.1017    2.4274 H       1  UNL1        0.0618
     47 H          -0.7051    4.1608    0.3032 H       1  UNL1        0.0621
     48 N          -3.3482   -2.4377   -0.8134 N.4     1  UNL1        0.2372
     49 H          -3.1787   -1.4896   -1.1693 H       1  UNL1        0.2034
@<TRIPOS>UNITY_ATOM_ATTR
48 1
charge 1
@<TRIPOS>BOND
     1     1     2    1
     2     1    21    1
     3     1    22    1
     4     1    23    1
     5     2    24    1
     6     2    25    1
     7     2    48    1
     8     3     4    1
     9     3    26    1
    10     3    27    1
    11     3    48    1
    12     4    28    1
    13     4    29    1
    14     4    30    1
    15     5     6    1
    16     5    31    1
    17     5    32    1
    18     5    48    1
    19     6     7    1
    20     6    33    1
    21     6    34    1
    22     7     8    1
    23     8     9    2
    24     8    10    1
    25    10    14    1
    26    10    11    1
    27    10    15    1
    28    11    12    1
    29    11    35    1
    30    11    36    1
    31    12    13    1
    32    12    37    1
    33    12    38    1
    34    13    14    1
    35    13    39    1
    36    13    40    1
    37    14    41    1
    38    14    42    1
    39    15    20   ar
    40    15    16   ar
    41    16    17   ar
    42    16    43    1
    43    17    18   ar
    44    17    44    1
    45    18    19   ar
    46    18    45    1
    47    19    20   ar
    48    19    46    1
    49    20    47    1
    50    48    49    1
