@<TRIPOS>MOLECULE
ZINC00896836
 42 43 0 0 0
SMALL
GASTEIGER

@<TRIPOS>ATOM
      1 C          -5.3701   -2.0110    1.2743 C.3     1  UNL1       -0.0219
      2 C          -4.9361   -2.6206   -0.0602 C.3     1  UNL1       -0.0283
      3 C          -5.9894   -2.3149   -1.1271 C.3     1  UNL1       -0.0219
      4 C          -2.5290   -2.7668    0.1558 C.3     1  UNL1       -0.0147
      5 C          -1.2063   -2.1394   -0.2890 C.3     1  UNL1        0.0608
      6 H          -1.0669   -2.2904   -1.3595 H       1  UNL1        0.0550
      7 C          -0.0432   -2.7778    0.4816 C.3     1  UNL1       -0.0256
      8 C           1.2706   -2.1859   -0.0283 C.3     1  UNL1       -0.0241
      9 C           1.2114   -0.6812   -0.0141 C.ar    1  UNL1       -0.0257
     10 C           2.3962    0.0361   -0.0197 C.ar    1  UNL1       -0.0450
     11 C           2.3749    1.4172   -0.0113 C.ar    1  UNL1        0.0551
     12 C           1.1686    2.0935    0.0021 C.ar    1  UNL1        0.2802
     13 C          -0.0168    1.3866    0.0097 C.ar    1  UNL1        0.0370
     14 C           0.0021   -0.0041    0.0020 C.ar    1  UNL1        0.0372
     15 N          -1.2106   -0.7019    0.0143 N.pl3   1  UNL1       -0.3356
     16 N           1.1488    3.5734    0.0085 N.pl3   1  UNL1        0.0800
     17 O           0.0860    4.1682    0.0204 O.2     1  UNL1        0.0415
     18 O           2.1954    4.1965    0.0019 O.co2   1  UNL1       -0.5760
     19 C           3.6693    2.1889   -0.0180 C.3     1  UNL1        0.0756
     20 O           4.7683    1.2756   -0.0330 O.3     1  UNL1       -0.3902
     21 H          -5.4730   -0.9315    1.1642 H       1  UNL1        0.0284
     22 H          -6.3266   -2.4385    1.5751 H       1  UNL1        0.0284
     23 H          -4.6197   -2.2288    2.0343 H       1  UNL1        0.0284
     24 H          -4.8332   -3.7002    0.0498 H       1  UNL1        0.0845
     25 H          -5.6803   -2.7492   -2.0778 H       1  UNL1        0.0284
     26 H          -6.9459   -2.7424   -0.8263 H       1  UNL1        0.0284
     27 H          -6.0924   -1.2354   -1.2371 H       1  UNL1        0.0284
     28 H          -2.5565   -3.8124   -0.1509 H       1  UNL1        0.0832
     29 H          -2.6141   -2.7041    1.2407 H       1  UNL1        0.0832
     30 H          -0.1504   -2.5665    1.5455 H       1  UNL1        0.0288
     31 H          -0.0455   -3.8556    0.3193 H       1  UNL1        0.0288
     32 H           2.0882   -2.5203    0.6103 H       1  UNL1        0.0314
     33 H           1.4476   -2.5269   -1.0484 H       1  UNL1        0.0314
     34 H           3.3411   -0.4869   -0.0302 H       1  UNL1        0.0626
     35 H          -0.9595    1.9135    0.0170 H       1  UNL1        0.0704
     36 H          -2.0407   -0.2440    0.2201 H       1  UNL1        0.1466
     37 H           3.7106    2.8215   -0.9046 H       1  UNL1        0.0609
     38 H           3.7261    2.8110    0.8752 H       1  UNL1        0.0609
     39 H           5.6354    1.7036   -0.0380 H       1  UNL1        0.2099
     40 N          -3.6459   -2.0362   -0.4722 N.4     1  UNL1        0.2301
     41 H          -3.6121   -1.0518   -0.1826 H       1  UNL1        0.2017
     42 H          -3.5579   -2.0957   -1.4935 H       1  UNL1        0.2017
@<TRIPOS>UNITY_ATOM_ATTR
16 1
charge 1
18 1
charge -1
40 1
charge 1
@<TRIPOS>BOND
     1     1     2    1
     2     1    21    1
     3     1    22    1
     4     1    23    1
     5     2     3    1
     6     2    24    1
     7     2    40    1
     8     3    25    1
     9     3    26    1
    10     3    27    1
    11     4     5    1
    12     4    28    1
    13     4    29    1
    14     4    40    1
    15     5     6    1
    16     5    15    1
    17     5     7    1
    18     7     8    1
    19     7    30    1
    20     7    31    1
    21     8     9    1
    22     8    32    1
    23     8    33    1
    24     9    14   ar
    25     9    10   ar
    26    10    11   ar
    27    10    34    1
    28    11    12   ar
    29    11    19    1
    30    12    13   ar
    31    12    16    1
    32    13    14   ar
    33    13    35    1
    34    14    15    1
    35    15    36    1
    36    16    17    2
    37    16    18    1
    38    19    20    1
    39    19    37    1
    40    19    38    1
    41    20    39    1
    42    40    41    1
    43    40    42    1
