@<TRIPOS>MOLECULE
ZINC03792909
 31 33 0 0 0
SMALL
GASTEIGER

@<TRIPOS>ATOM
      1 C           0.5399    3.1737    4.3213 C.3     1  UNL1       -0.0292
      2 C           0.4777    1.9745    3.3732 C.3     1  UNL1        0.1024
      3 H           1.4106    1.4112    3.3952 H       1  UNL1        0.0710
      4 O           0.1537    2.3893    2.0313 O.3     1  UNL1       -0.3536
      5 C          -0.7318    1.5812    1.2710 C.3     1  UNL1        0.1224
      6 C          -0.0127    1.0858    0.0080 C.3     1  UNL1       -0.0010
      7 C          -2.0948    1.0480   -1.2303 C.3     1  UNL1       -0.0314
      8 C          -2.8713    1.5464   -0.0083 C.3     1  UNL1       -0.0067
      9 C          -1.9459    2.4230    0.8437 C.3     1  UNL1        0.0036
     10 C          -1.4514    3.5951   -0.0117 C.3     1  UNL1       -0.0067
     11 C          -0.7180    3.0407   -1.2362 C.3     1  UNL1       -0.0314
     12 C          -1.2676    0.3353    2.0301 C.3     1  UNL1        0.0305
     13 S          -0.9642    0.8886    3.7681 S.3     1  UNL1       -0.1269
     14 H           0.6661    2.8214    5.3450 H       1  UNL1        0.0263
     15 H           1.3830    3.8087    4.0491 H       1  UNL1        0.0263
     16 H          -0.3850    3.7454    4.2452 H       1  UNL1        0.0263
     17 H           0.0021   -0.0041    0.0020 H       1  UNL1        0.0843
     18 H           1.0098    1.4632    0.0003 H       1  UNL1        0.0843
     19 H          -2.5850    1.3960   -2.1396 H       1  UNL1        0.0814
     20 H          -2.0682   -0.0416   -1.2249 H       1  UNL1        0.0814
     21 H          -3.2115    0.6945    0.5805 H       1  UNL1        0.0320
     22 H          -3.7301    2.1325   -0.3356 H       1  UNL1        0.0320
     23 H          -2.4706    2.7965    1.7231 H       1  UNL1        0.0334
     24 H          -0.7697    4.2121    0.5737 H       1  UNL1        0.0320
     25 H          -2.3019    4.1947   -0.3361 H       1  UNL1        0.0320
     26 H           0.3107    3.4012   -1.2384 H       1  UNL1        0.0814
     27 H          -1.2218    3.3726   -2.1440 H       1  UNL1        0.0814
     28 H          -2.3299    0.1805    1.8413 H       1  UNL1        0.0407
     29 H          -0.6891   -0.5567    1.7895 H       1  UNL1        0.0407
     30 N          -0.7086    1.5624   -1.2058 N.4     1  UNL1        0.2373
     31 H          -0.2099    1.2153   -2.0334 H       1  UNL1        0.2034
@<TRIPOS>UNITY_ATOM_ATTR
30 1
charge 1
@<TRIPOS>BOND
     1     1     2    1
     2     1    14    1
     3     1    15    1
     4     1    16    1
     5     2     3    1
     6     2    13    1
     7     2     4    1
     8     4     5    1
     9     5     9    1
    10     5     6    1
    11     5    12    1
    12     6    17    1
    13     6    18    1
    14     6    30    1
    15     7     8    1
    16     7    19    1
    17     7    20    1
    18     7    30    1
    19     8     9    1
    20     8    21    1
    21     8    22    1
    22     9    10    1
    23     9    23    1
    24    10    11    1
    25    10    24    1
    26    10    25    1
    27    11    26    1
    28    11    27    1
    29    11    30    1
    30    12    13    1
    31    12    28    1
    32    12    29    1
    33    30    31    1
