@<TRIPOS>MOLECULE
ZINC03977994
 46 49 0 0 0
SMALL
GASTEIGER

@<TRIPOS>ATOM
      1 C           0.0735   -0.5293    1.4373 C.3     1  UNL1       -0.0558
      2 C           0.0021   -0.0041    0.0020 C.3     1  UNL1        0.0111
      3 C          -1.1266   -0.6925   -0.7412 C.3     1  UNL1       -0.0433
      4 C          -0.8983   -2.2071   -0.6085 C.3     1  UNL1       -0.0453
      5 C           0.4690   -2.6200   -1.1364 C.3     1  UNL1       -0.0125
      6 H           0.6300   -3.6635   -0.8658 H       1  UNL1        0.0352
      7 C           0.5019   -2.5240   -2.6366 C.ar    1  UNL1       -0.0406
      8 C          -0.6437   -2.8894   -3.3339 C.ar    1  UNL1       -0.0546
      9 C          -0.6781   -2.8301   -4.7103 C.ar    1  UNL1       -0.0199
     10 C           0.4420   -2.4023   -5.4088 C.ar    1  UNL1        0.1171
     11 C           1.5825   -2.0362   -4.7148 C.ar    1  UNL1       -0.0167
     12 C           1.6131   -2.0946   -3.3284 C.ar    1  UNL1       -0.0405
     13 C           2.8821   -1.6706   -2.6362 C.3     1  UNL1       -0.0270
     14 C           2.9159   -2.2019   -1.2049 C.3     1  UNL1       -0.0454
     15 C           1.6070   -1.8105   -0.5099 C.3     1  UNL1       -0.0305
     16 H           1.6726   -2.0209    0.5576 H       1  UNL1        0.0310
     17 C           1.3182   -0.3397   -0.7502 C.3     1  UNL1       -0.0286
     18 H           1.2090   -0.1437   -1.8169 H       1  UNL1        0.0310
     19 C           2.3023    0.6440   -0.1067 C.3     1  UNL1       -0.0458
     20 C           1.4695    1.9507   -0.0015 C.3     1  UNL1       -0.0118
     21 C          -0.0186    1.5208    0.0104 C.3     1  UNL1        0.1317
     22 C          -0.7056    2.0282   -1.1885 C.1     1  UNL1       -0.0704
     23 C          -1.2536    2.4329   -2.1447 C.1     1  UNL1       -0.1163
     24 O          -0.6632    2.0008    1.1920 O.3     1  UNL1       -0.3760
     25 O           0.4194   -2.3427   -6.7663 O.3     1  UNL1       -0.5068
     26 H          -0.8101   -0.2052    1.9871 H       1  UNL1        0.0236
     27 H           0.1140   -1.6184    1.4240 H       1  UNL1        0.0236
     28 H           0.9674   -0.1383    1.9232 H       1  UNL1        0.0236
     29 H          -2.0841   -0.4209   -0.2967 H       1  UNL1        0.0272
     30 H          -1.1091   -0.4049   -1.7924 H       1  UNL1        0.0272
     31 H          -0.9729   -2.4870    0.4423 H       1  UNL1        0.0271
     32 H          -1.6691   -2.7333   -1.1717 H       1  UNL1        0.0271
     33 H          -1.5157   -3.2237   -2.7915 H       1  UNL1        0.0622
     34 H          -1.5732   -3.1151   -5.2431 H       1  UNL1        0.0654
     35 H           2.4552   -1.7022   -5.2564 H       1  UNL1        0.0657
     36 H           3.7388   -2.0615   -3.1851 H       1  UNL1        0.0313
     37 H           2.9342   -0.5820   -2.6163 H       1  UNL1        0.0313
     38 H           3.0125   -3.2875   -1.2194 H       1  UNL1        0.0271
     39 H           3.7613   -1.7661   -0.6724 H       1  UNL1        0.0271
     40 H           2.6028    0.2976    0.8821 H       1  UNL1        0.0269
     41 H           3.1743    0.7896   -0.7443 H       1  UNL1        0.0269
     42 H           1.6672    2.5905   -0.8615 H       1  UNL1        0.0303
     43 H           1.7143    2.4770    0.9211 H       1  UNL1        0.0303
     44 H          -1.7437    2.7948   -2.9999 H       1  UNL1        0.1229
     45 H          -0.7062    2.9649    1.2526 H       1  UNL1        0.2114
     46 H           0.1206   -1.4928   -7.1177 H       1  UNL1        0.2921
@<TRIPOS>BOND
     1     1     2    1
     2     1    26    1
     3     1    27    1
     4     1    28    1
     5     2    17    1
     6     2    21    1
     7     2     3    1
     8     3     4    1
     9     3    29    1
    10     3    30    1
    11     4     5    1
    12     4    31    1
    13     4    32    1
    14     5     6    1
    15     5    15    1
    16     5     7    1
    17     7    12   ar
    18     7     8   ar
    19     8     9   ar
    20     8    33    1
    21     9    10   ar
    22     9    34    1
    23    10    11   ar
    24    10    25    1
    25    11    12   ar
    26    11    35    1
    27    12    13    1
    28    13    14    1
    29    13    36    1
    30    13    37    1
    31    14    15    1
    32    14    38    1
    33    14    39    1
    34    15    16    1
    35    15    17    1
    36    17    18    1
    37    17    19    1
    38    19    20    1
    39    19    40    1
    40    19    41    1
    41    20    21    1
    42    20    42    1
    43    20    43    1
    44    21    22    1
    45    21    24    1
    46    22    23    3
    47    23    44    1
    48    24    45    1
    49    25    46    1
