@<TRIPOS>MOLECULE
ZINC03871612
 43 45 0 0 0
SMALL
GASTEIGER

@<TRIPOS>ATOM
      1 C           0.5496    5.4709    0.0262 C.ar    1  UNL1        0.1205
      2 N          -0.7711    5.4672    0.0392 N.ar    1  UNL1       -0.2188
      3 C          -1.4561    4.3285    0.0397 C.ar    1  UNL1        0.1472
      4 C          -0.7424    3.1177    0.0259 C.ar    1  UNL1        0.1473
      5 C           0.6612    3.1753    0.0128 C.ar    1  UNL1        0.1674
      6 N           1.2591    4.3624    0.0135 N.ar    1  UNL1       -0.2159
      7 N           1.0931    1.8731    0.0017 N.ar    1  UNL1       -0.2855
      8 C          -0.0126    1.0758    0.0080 C.ar    1  UNL1        0.1004
      9 N          -1.0885    1.8080    0.0165 N.ar    1  UNL1       -0.2306
     10 C           2.4869    1.4222   -0.0133 C.3     1  UNL1        0.1667
     11 H           3.1081    2.0922    0.5811 H       1  UNL1        0.0866
     12 C           3.0123    1.3472   -1.4641 C.3     1  UNL1        0.1285
     13 H           3.5877    2.2401   -1.7085 H       1  UNL1        0.0665
     14 C           3.9220    0.0984   -1.4699 C.3     1  UNL1        0.1135
     15 H           4.9468    0.3735   -1.7195 H       1  UNL1        0.0647
     16 C           3.8387   -0.4334   -0.0219 C.3     1  UNL1        0.1133
     17 H           4.6695   -0.0511    0.5711 H       1  UNL1        0.0647
     18 O           2.5835    0.0708    0.4869 O.3     1  UNL1       -0.3456
     19 C           3.8407   -1.9634   -0.0155 C.3     1  UNL1        0.0836
     20 O           3.8807   -2.4341    1.3332 O.3     1  UNL1       -0.3246
     21 P           3.8937   -3.9978    1.7162 P.3     1  UNL1        0.2182
     22 O           2.7327   -4.6688    1.0899 O.2     1  UNL1       -0.5170
     23 O           3.8083   -4.1592    3.3158 O.3     1  UNL1       -0.2702
     24 P           3.4803   -5.3907    4.2996 P.3     1  UNL1        0.2206
     25 O           2.3773   -6.1967    3.7304 O.2     1  UNL1       -0.5169
     26 O           3.0421   -4.8238    5.7414 O.3     1  UNL1       -0.3141
     27 P           2.3174   -5.4717    7.0248 P.3     1  UNL1       -0.0068
     28 O           2.9192   -6.7919    7.3170 O.2     1  UNL1       -0.6374
     29 O           3.4282   -0.8766   -2.3906 O.3     1  UNL1       -0.3864
     30 O           1.9286    1.1849   -2.3813 O.3     1  UNL1       -0.3847
     31 N          -2.8398    4.3346    0.0529 N.pl3   1  UNL1       -0.3413
     32 H           1.0667    6.4190    0.0264 H       1  UNL1        0.1048
     33 H           0.0021   -0.0041    0.0020 H       1  UNL1        0.1030
     34 H           2.9366   -2.3300   -0.5016 H       1  UNL1        0.0591
     35 H           4.7158   -2.3279   -0.5536 H       1  UNL1        0.0591
     36 H           3.4017   -0.5730   -3.3083 H       1  UNL1        0.2100
     37 H           2.2017    1.1320   -3.3074 H       1  UNL1        0.2101
     38 H          -3.1632    4.8031    0.8750 H       1  UNL1        0.1438
     39 H          -3.3286    3.4968    0.0531 H       1  UNL1        0.1438
     40 O           5.2552   -4.6701    1.1809 O.co2   1  UNL1       -0.4371
     41 O           4.7905   -6.3124    4.4610 O.co2   1  UNL1       -0.4370
     42 O           2.5085   -4.5018    8.2956 O.co2   1  UNL1       -0.5767
     43 O           0.7471   -5.6534    6.7197 O.co2   1  UNL1       -0.5767
@<TRIPOS>UNITY_ATOM_ATTR
40 1
charge -1
41 1
charge -1
42 1
charge -1
43 1
charge -1
@<TRIPOS>BOND
     1     1     6   ar
     2     1     2   ar
     3     1    32    1
     4     2     3   ar
     5     3     4   ar
     6     3    31    1
     7     4     9   ar
     8     4     5   ar
     9     5     6   ar
    10     5     7   ar
    11     7     8   ar
    12     7    10    1
    13     8     9   ar
    14     8    33    1
    15    10    11    1
    16    10    18    1
    17    10    12    1
    18    12    13    1
    19    12    14    1
    20    12    30    1
    21    14    15    1
    22    14    16    1
    23    14    29    1
    24    16    17    1
    25    16    18    1
    26    16    19    1
    27    19    20    1
    28    19    34    1
    29    19    35    1
    30    20    21    1
    31    21    22    2
    32    21    23    1
    33    21    40    1
    34    23    24    1
    35    24    25    2
    36    24    26    1
    37    24    41    1
    38    26    27    1
    39    27    28    2
    40    27    42    1
    41    27    43    1
    42    29    36    1
    43    30    37    1
    44    31    38    1
    45    31    39    1
