@<TRIPOS>MOLECULE
ZINC03831511
 77 80 0 0 0
SMALL
GASTEIGER

@<TRIPOS>ATOM
      1 C           5.2290    1.2092   14.3349 C.3     1  UNL1       -0.0560
      2 C           5.5487    0.1130   13.3166 C.3     1  UNL1       -0.0127
      3 C           5.2187   -1.2543   13.9187 C.3     1  UNL1       -0.0560
      4 C           7.0353    0.1672   12.9586 C.3     1  UNL1       -0.0560
      5 C           4.7245    0.3265   12.0732 C.ar    1  UNL1       -0.0420
      6 C           4.8518    1.4992   11.3524 C.ar    1  UNL1       -0.0577
      7 C           4.0961    1.6949   10.2116 C.ar    1  UNL1       -0.0559
      8 C           3.2126    0.7180    9.7918 C.ar    1  UNL1       -0.0191
      9 C           3.0811   -0.4522   10.5157 C.ar    1  UNL1       -0.0559
     10 C           3.8407   -0.6501   11.6536 C.ar    1  UNL1       -0.0577
     11 C           2.3884    0.9315    8.5484 C.3     1  UNL1        0.0804
     12 H           2.3433    1.9966    8.3208 H       1  UNL1        0.0643
     13 C           3.0307    0.1864    7.3766 C.3     1  UNL1       -0.0179
     14 C           2.2659    0.5034    6.0899 C.3     1  UNL1       -0.0099
     15 C           2.9082   -0.2417    4.9181 C.3     1  UNL1       -0.0318
     16 C           2.8942   -0.4387    2.5053 C.3     1  UNL1       -0.0315
     17 C           2.1779    0.0210    1.2335 C.3     1  UNL1       -0.0063
     18 C           0.7421   -0.5109    1.2415 C.3     1  UNL1        0.0058
     19 C           0.0281   -0.0151    2.5021 C.3     1  UNL1       -0.0063
     20 C           0.8076   -0.4725    3.7372 C.3     1  UNL1       -0.0315
     21 C           0.0021   -0.0041    0.0020 C.3     1  UNL1        0.1190
     22 C          -1.4117   -0.5257    0.0127 C.ar    1  UNL1       -0.0115
     23 C          -1.6947   -1.7434    0.6025 C.ar    1  UNL1       -0.0555
     24 C          -2.9923   -2.2199    0.6162 C.ar    1  UNL1       -0.0614
     25 C          -4.0053   -1.4830    0.0316 C.ar    1  UNL1       -0.0617
     26 C          -3.7215   -0.2675   -0.5624 C.ar    1  UNL1       -0.0614
     27 C          -2.4247    0.2109   -0.5723 C.ar    1  UNL1       -0.0555
     28 C           0.7074   -0.4901   -1.2379 C.ar    1  UNL1       -0.0115
     29 C           1.4002   -1.6861   -1.2150 C.ar    1  UNL1       -0.0555
     30 C           2.0436   -2.1340   -2.3536 C.ar    1  UNL1       -0.0614
     31 C           2.0022   -1.3813   -3.5123 C.ar    1  UNL1       -0.0617
     32 C           1.3134   -0.1829   -3.5337 C.ar    1  UNL1       -0.0614
     33 C           0.6665    0.2629   -2.3964 C.ar    1  UNL1       -0.0555
     34 O          -0.0173    1.4248    0.0099 O.3     1  UNL1       -0.3790
     35 O           1.0661    0.4337    8.7621 O.3     1  UNL1       -0.3872
     36 H           4.1700    1.1706   14.5899 H       1  UNL1        0.0238
     37 H           5.8252    1.0548   15.2342 H       1  UNL1        0.0238
     38 H           5.4642    2.1833   13.9059 H       1  UNL1        0.0238
     39 H           5.4464   -2.0353   13.1932 H       1  UNL1        0.0238
     40 H           5.8149   -1.4088   14.8180 H       1  UNL1        0.0238
     41 H           4.1597   -1.2930   14.1737 H       1  UNL1        0.0238
     42 H           7.2704    1.1413   12.5296 H       1  UNL1        0.0238
     43 H           7.6314    0.0128   13.8579 H       1  UNL1        0.0238
     44 H           7.2630   -0.6138   12.2331 H       1  UNL1        0.0238
     45 H           5.5420    2.2624   11.6804 H       1  UNL1        0.0621
     46 H           4.1956    2.6111    9.6485 H       1  UNL1        0.0621
     47 H           2.3877   -1.2136   10.1902 H       1  UNL1        0.0621
     48 H           3.7409   -1.5662   12.2169 H       1  UNL1        0.0621
     49 H           2.9955   -0.8866    7.5652 H       1  UNL1        0.0295
     50 H           4.0683    0.5027    7.2698 H       1  UNL1        0.0295
     51 H           2.3012    1.5764    5.9013 H       1  UNL1        0.0318
     52 H           1.2283    0.1872    6.1967 H       1  UNL1        0.0318
     53 H           2.8730   -1.3147    5.1067 H       1  UNL1        0.0814
     54 H           3.9459    0.0746    4.8113 H       1  UNL1        0.0814
     55 H           2.9216   -1.5280    2.5331 H       1  UNL1        0.0814
     56 H           3.9124   -0.0497    2.5095 H       1  UNL1        0.0814
     57 H           2.7038   -0.3644    0.3600 H       1  UNL1        0.0321
     58 H           2.1622    1.1103    1.1975 H       1  UNL1        0.0321
     59 H           0.7573   -1.6008    1.2364 H       1  UNL1        0.0339
     60 H          -0.0223    1.0736    2.4874 H       1  UNL1        0.0321
     61 H          -0.9808   -0.4263    2.5344 H       1  UNL1        0.0321
     62 H           0.8448   -1.5617    3.7592 H       1  UNL1        0.0814
     63 H           0.3103   -0.1079    4.6359 H       1  UNL1        0.0814
     64 H          -0.9026   -2.3210    1.0557 H       1  UNL1        0.0621
     65 H          -3.2141   -3.1694    1.0806 H       1  UNL1        0.0618
     66 H          -5.0185   -1.8568    0.0393 H       1  UNL1        0.0618
     67 H          -4.5130    0.3082   -1.0191 H       1  UNL1        0.0618
     68 H          -2.2029    1.1604   -1.0367 H       1  UNL1        0.0621
     69 H           1.4360   -2.2722   -0.3086 H       1  UNL1        0.0621
     70 H           2.5814   -3.0704   -2.3369 H       1  UNL1        0.0618
     71 H           2.5077   -1.7296   -4.4008 H       1  UNL1        0.0618
     72 H           1.2811    0.4052   -4.4390 H       1  UNL1        0.0618
     73 H           0.1286    1.1993   -2.4131 H       1  UNL1        0.0621
     74 H           0.8606    1.8301    0.0037 H       1  UNL1        0.2111
     75 H           1.0299   -0.5101    8.9698 H       1  UNL1        0.2102
     76 N           2.1727    0.0927    3.6811 N.4     1  UNL1        0.2352
     77 H           2.1071    1.1139    3.5980 H       1  UNL1        0.2033
@<TRIPOS>UNITY_ATOM_ATTR
76 1
charge 1
@<TRIPOS>BOND
     1     1     2    1
     2     1    36    1
     3     1    37    1
     4     1    38    1
     5     2     3    1
     6     2     4    1
     7     2     5    1
     8     3    39    1
     9     3    40    1
    10     3    41    1
    11     4    42    1
    12     4    43    1
    13     4    44    1
    14     5    10   ar
    15     5     6   ar
    16     6     7   ar
    17     6    45    1
    18     7     8   ar
    19     7    46    1
    20     8     9   ar
    21     8    11    1
    22     9    10   ar
    23     9    47    1
    24    10    48    1
    25    11    12    1
    26    11    13    1
    27    11    35    1
    28    13    14    1
    29    13    49    1
    30    13    50    1
    31    14    15    1
    32    14    51    1
    33    14    52    1
    34    15    53    1
    35    15    54    1
    36    15    76    1
    37    16    17    1
    38    16    55    1
    39    16    56    1
    40    16    76    1
    41    17    18    1
    42    17    57    1
    43    17    58    1
    44    18    19    1
    45    18    21    1
    46    18    59    1
    47    19    20    1
    48    19    60    1
    49    19    61    1
    50    20    62    1
    51    20    63    1
    52    20    76    1
    53    21    22    1
    54    21    28    1
    55    21    34    1
    56    22    27   ar
    57    22    23   ar
    58    23    24   ar
    59    23    64    1
    60    24    25   ar
    61    24    65    1
    62    25    26   ar
    63    25    66    1
    64    26    27   ar
    65    26    67    1
    66    27    68    1
    67    28    33   ar
    68    28    29   ar
    69    29    30   ar
    70    29    69    1
    71    30    31   ar
    72    30    70    1
    73    31    32   ar
    74    31    71    1
    75    32    33   ar
    76    32    72    1
    77    33    73    1
    78    34    74    1
    79    35    75    1
    80    76    77    1
