@<TRIPOS>MOLECULE
ZINC00968275
 49 51 0 0 0
SMALL
GASTEIGER

@<TRIPOS>ATOM
      1 C           0.6509    0.3282   -2.8555 C.3     1  UNL1       -0.0561
      2 C           0.2814   -1.0089   -2.2101 C.3     1  UNL1        0.0124
      3 H           1.1837   -1.4948   -1.8389 H       1  UNL1        0.0365
      4 C          -0.6818   -0.7648   -1.0467 C.3     1  UNL1        0.0247
      5 N           0.0021   -0.0041    0.0020 N.pl3   1  UNL1       -0.2992
      6 C          -0.0169    1.3956    0.0097 C.ar    1  UNL1        0.0372
      7 C          -1.2609    2.0210    0.0323 C.ar    1  UNL1       -0.0401
      8 C          -1.3533    3.3957    0.0800 C.ar    1  UNL1       -0.0600
      9 C          -0.1937    4.1491    0.1094 C.ar    1  UNL1       -0.0614
     10 C           1.0353    3.5315    0.0724 C.ar    1  UNL1       -0.0568
     11 C           1.1500    2.1412    0.0026 C.ar    1  UNL1       -0.0257
     12 C           2.5708    1.6302   -0.0975 C.3     1  UNL1       -0.0219
     13 C           2.6482    0.1189   -0.2229 C.3     1  UNL1       -0.0219
     14 C           2.0635   -0.5643    0.9857 C.ar    1  UNL1       -0.0257
     15 C           0.6962   -0.6525    1.0306 C.ar    1  UNL1        0.0372
     16 C           0.0624   -1.3427    2.0488 C.ar    1  UNL1       -0.0401
     17 C           0.8381   -1.9208    3.0411 C.ar    1  UNL1       -0.0600
     18 C           2.2158   -1.8039    3.0092 C.ar    1  UNL1       -0.0614
     19 C           2.8406   -1.1204    1.9758 C.ar    1  UNL1       -0.0568
     20 C          -0.3914   -1.9081   -3.2492 C.3     1  UNL1       -0.0283
     21 C           1.6650   -3.0700   -3.7818 C.3     1  UNL1       -0.0433
     22 C          -0.0936   -2.9007   -5.4375 C.3     1  UNL1       -0.0433
     23 H           1.3371    0.1542   -3.6844 H       1  UNL1        0.0235
     24 H          -0.2515    0.8141   -3.2267 H       1  UNL1        0.0235
     25 H           1.1302    0.9688   -2.1153 H       1  UNL1        0.0235
     26 H          -1.0144   -1.7213   -0.6435 H       1  UNL1        0.0472
     27 H          -1.5442   -0.2004   -1.4013 H       1  UNL1        0.0472
     28 H          -2.1608    1.4242    0.0115 H       1  UNL1        0.0636
     29 H          -2.3193    3.8785    0.0939 H       1  UNL1        0.0618
     30 H          -0.2532    5.2262    0.1620 H       1  UNL1        0.0618
     31 H           1.9306    4.1349    0.0976 H       1  UNL1        0.0621
     32 H           3.1180    1.9371    0.7938 H       1  UNL1        0.0317
     33 H           3.0432    2.0797   -0.9710 H       1  UNL1        0.0317
     34 H           3.6919   -0.1770   -0.3295 H       1  UNL1        0.0317
     35 H           2.0971   -0.1930   -1.1101 H       1  UNL1        0.0317
     36 H          -1.0140   -1.4287    2.0700 H       1  UNL1        0.0636
     37 H           0.3640   -2.4662    3.8437 H       1  UNL1        0.0618
     38 H           2.8097   -2.2475    3.7946 H       1  UNL1        0.0618
     39 H           3.9162   -1.0269    1.9489 H       1  UNL1        0.0621
     40 H          -0.7342   -2.8247   -2.7690 H       1  UNL1        0.0817
     41 H          -1.2432   -1.3857   -3.6848 H       1  UNL1        0.0817
     42 H           1.2562   -3.9962   -3.3781 H       1  UNL1        0.0777
     43 H           2.3640   -3.3013   -4.5855 H       1  UNL1        0.0777
     44 H           2.1856   -2.5281   -2.9923 H       1  UNL1        0.0777
     45 H          -0.8516   -2.2358   -5.8516 H       1  UNL1        0.0777
     46 H           0.6427   -3.1356   -6.2061 H       1  UNL1        0.0777
     47 H          -0.5662   -3.8209   -5.0937 H       1  UNL1        0.0777
     48 N           0.5838   -2.2157   -4.3165 N.4     1  UNL1        0.2311
     49 H           0.9911   -1.3378   -4.6593 H       1  UNL1        0.2028
@<TRIPOS>UNITY_ATOM_ATTR
48 1
charge 1
@<TRIPOS>BOND
     1     1     2    1
     2     1    23    1
     3     1    24    1
     4     1    25    1
     5     2     3    1
     6     2     4    1
     7     2    20    1
     8     4     5    1
     9     4    26    1
    10     4    27    1
    11     5    15    1
    12     5     6    1
    13     6    11   ar
    14     6     7   ar
    15     7     8   ar
    16     7    28    1
    17     8     9   ar
    18     8    29    1
    19     9    10   ar
    20     9    30    1
    21    10    11   ar
    22    10    31    1
    23    11    12    1
    24    12    13    1
    25    12    32    1
    26    12    33    1
    27    13    14    1
    28    13    34    1
    29    13    35    1
    30    14    19   ar
    31    14    15   ar
    32    15    16   ar
    33    16    17   ar
    34    16    36    1
    35    17    18   ar
    36    17    37    1
    37    18    19   ar
    38    18    38    1
    39    19    39    1
    40    20    40    1
    41    20    41    1
    42    20    48    1
    43    21    42    1
    44    21    43    1
    45    21    44    1
    46    21    48    1
    47    22    45    1
    48    22    46    1
    49    22    47    1
    50    22    48    1
    51    48    49    1
