@<TRIPOS>MOLECULE
ZINC11592662
 63 66 0 0 0
SMALL
GASTEIGER

@<TRIPOS>ATOM
      1 C          -0.2072    3.4877    2.1760 C.3     1  UNL1       -0.0586
      2 C           0.0124    2.2184    1.3373 C.3     1  UNL1       -0.0179
      3 C           0.7621    2.5344    0.0460 C.3     1  UNL1       -0.0464
      4 C          -0.1109    3.1870   -1.0034 C.3     1  UNL1       -0.0486
      5 C          -1.3690    2.3955   -1.3236 C.3     1  UNL1       -0.0274
      6 H          -2.0585    3.1565   -1.8049 H       1  UNL1        0.0312
      7 C          -2.1031    1.9348   -0.0949 C.3     1  UNL1       -0.0340
      8 H          -2.6030    2.8766    0.2902 H       1  UNL1        0.0307
      9 C          -1.2989    1.4768    1.0870 C.3     1  UNL1       -0.0318
     10 H          -1.9442    1.7019    1.9761 H       1  UNL1        0.0309
     11 C          -1.0275   -0.0263    1.1502 C.3     1  UNL1       -0.0487
     12 C           0.4355   -0.1879    1.6082 C.3     1  UNL1       -0.0411
     13 C           0.8903    1.1929    2.1069 C.3     1  UNL1        0.0412
     14 H           1.9428    1.3517    1.8698 H       1  UNL1        0.0400
     15 C           0.6625    1.3201    3.5889 C.2     1  UNL1        0.2170
     16 O          -0.3950    0.9744    4.0718 O.2     1  UNL1       -0.2755
     17 N           1.6337    1.8180    4.3797 N.am    1  UNL1       -0.3103
     18 C           1.4119    1.9418    5.8225 C.3     1  UNL1        0.0262
     19 C           1.1249    0.5605    6.4148 C.3     1  UNL1       -0.0442
     20 C           2.6610    2.5299    6.4819 C.3     1  UNL1       -0.0442
     21 C           0.2181    2.8641    6.0778 C.3     1  UNL1       -0.0442
     22 C          -3.2831    1.0098   -0.3672 C.3     1  UNL1       -0.0480
     23 C          -3.0033   -0.0307   -1.4456 C.3     1  UNL1       -0.0334
     24 C          -2.4831    0.6516   -2.7019 C.3     1  UNL1        0.0325
     25 H          -3.2092    1.4040   -3.0240 H       1  UNL1        0.0507
     26 C          -1.1555    1.3565   -2.4037 C.3     1  UNL1        0.0078
     27 C          -0.7004    2.0232   -3.6878 C.2     1  UNL1       -0.0712
     28 C          -0.8687    1.3835   -4.8431 C.2     1  UNL1       -0.0032
     29 C          -1.5839    0.0960   -4.8790 C.2     1  UNL1        0.2369
     30 O          -1.5234   -0.6142   -5.8636 O.2     1  UNL1       -0.2708
     31 N          -2.2871   -0.3005   -3.7945 N.am    1  UNL1       -0.3082
     32 C          -0.1005    0.3199   -2.0234 C.3     1  UNL1       -0.0541
     33 H          -0.7718    3.2368    3.0739 H       1  UNL1        0.0235
     34 H           0.7581    3.9075    2.4593 H       1  UNL1        0.0235
     35 H          -0.7634    4.2190    1.5895 H       1  UNL1        0.0235
     36 H           1.5783    3.2359    0.2978 H       1  UNL1        0.0271
     37 H           1.2401    1.6360   -0.3341 H       1  UNL1        0.0271
     38 H          -0.3988    4.1926   -0.6620 H       1  UNL1        0.0268
     39 H           0.4744    3.3253   -1.9233 H       1  UNL1        0.0268
     40 H          -1.6976   -0.4964    1.8895 H       1  UNL1        0.0268
     41 H          -1.1896   -0.5151    0.1924 H       1  UNL1        0.0268
     42 H           1.0576   -0.5091    0.7703 H       1  UNL1        0.0273
     43 H           0.4983   -0.9199    2.4146 H       1  UNL1        0.0273
     44 H           2.4794    2.0945    3.9936 H       1  UNL1        0.1492
     45 H           1.9754   -0.0966    6.2329 H       1  UNL1        0.0250
     46 H           0.9599    0.6526    7.4883 H       1  UNL1        0.0250
     47 H           0.2351    0.1415    5.9450 H       1  UNL1        0.0250
     48 H           2.8654    3.5140    6.0600 H       1  UNL1        0.0250
     49 H           2.4960    2.6220    7.5554 H       1  UNL1        0.0250
     50 H           3.5114    1.8728    6.3001 H       1  UNL1        0.0250
     51 H          -0.6717    2.4451    5.6080 H       1  UNL1        0.0250
     52 H           0.0531    2.9562    7.1513 H       1  UNL1        0.0250
     53 H           0.4226    3.8481    5.6559 H       1  UNL1        0.0250
     54 H          -3.5600    0.4987    0.5633 H       1  UNL1        0.0269
     55 H          -4.1466    1.6151   -0.6726 H       1  UNL1        0.0269
     56 H          -2.3138   -0.7870   -1.0895 H       1  UNL1        0.0283
     57 H          -3.9499   -0.5370   -1.6938 H       1  UNL1        0.0283
     58 H          -0.2169    2.9862   -3.6492 H       1  UNL1        0.0580
     59 H          -0.4754    1.8097   -5.7582 H       1  UNL1        0.0666
     60 H          -2.6532   -1.1941   -3.7387 H       1  UNL1        0.1493
     61 H          -0.3674   -0.1375   -1.0707 H       1  UNL1        0.0239
     62 H          -0.0519   -0.4489   -2.7945 H       1  UNL1        0.0239
     63 H           0.8708    0.8063   -1.9334 H       1  UNL1        0.0239
@<TRIPOS>BOND
     1     1     2    1
     2     1    33    1
     3     1    34    1
     4     1    35    1
     5     2     9    1
     6     2    13    1
     7     2     3    1
     8     3     4    1
     9     3    36    1
    10     3    37    1
    11     4     5    1
    12     4    38    1
    13     4    39    1
    14     5     6    1
    15     5    26    1
    16     5     7    1
    17     7     8    1
    18     7     9    1
    19     7    22    1
    20     9    10    1
    21     9    11    1
    22    11    12    1
    23    11    40    1
    24    11    41    1
    25    12    13    1
    26    12    42    1
    27    12    43    1
    28    13    14    1
    29    13    15    1
    30    15    16    2
    31    15    17   am
    32    17    18    1
    33    17    44    1
    34    18    19    1
    35    18    20    1
    36    18    21    1
    37    19    45    1
    38    19    46    1
    39    19    47    1
    40    20    48    1
    41    20    49    1
    42    20    50    1
    43    21    51    1
    44    21    52    1
    45    21    53    1
    46    22    23    1
    47    22    54    1
    48    22    55    1
    49    23    24    1
    50    23    56    1
    51    23    57    1
    52    24    25    1
    53    24    31    1
    54    24    26    1
    55    26    27    1
    56    26    32    1
    57    27    28    2
    58    27    58    1
    59    28    29    1
    60    28    59    1
    61    29    30    2
    62    29    31   am
    63    31    60    1
    64    32    61    1
    65    32    62    1
    66    32    63    1
