@<TRIPOS>MOLECULE
ZINC03831461
 80 83 0 0 0
SMALL
GASTEIGER

@<TRIPOS>ATOM
      1 C           1.4538   -5.1194   -1.8719 C.3     1  UNL1       -0.0650
      2 C           1.3152   -3.6037   -1.7155 C.3     1  UNL1       -0.0528
      3 C          -0.0227   -3.2802   -1.0475 C.3     1  UNL1       -0.0389
      4 H          -0.8330   -3.7323   -1.6193 H       1  UNL1        0.0303
      5 C          -0.2158   -1.7631   -1.0010 C.3     1  UNL1       -0.0497
      6 C          -0.3334   -1.2201   -2.4266 C.3     1  UNL1       -0.0499
      7 C          -0.5266    0.2969   -2.3801 C.3     1  UNL1       -0.0405
      8 H           0.4279    0.7784   -2.1672 H       1  UNL1        0.0301
      9 C          -1.5319    0.6497   -1.2820 C.3     1  UNL1       -0.0621
     10 C          -1.0521    0.7836   -3.7254 C.3     1  UNL1       -0.0328
     11 H          -1.2304    1.8560   -3.7101 H       1  UNL1        0.0309
     12 C          -2.3570    0.0263   -4.0894 C.3     1  UNL1       -0.0492
     13 C          -1.9680   -1.0406   -5.1468 C.3     1  UNL1       -0.0492
     14 C          -0.4318   -1.0564   -5.0974 C.3     1  UNL1       -0.0320
     15 H          -0.1362   -1.6262   -4.1912 H       1  UNL1        0.0309
     16 C          -0.0987    0.4331   -4.8836 C.3     1  UNL1       -0.0259
     17 C           1.3678    0.6621   -4.6389 C.3     1  UNL1       -0.0468
     18 C           2.2144   -0.4180   -5.3369 C.3     1  UNL1       -0.0486
     19 C           1.5332   -0.8642   -6.6233 C.3     1  UNL1       -0.0285
     20 H           1.2584    0.0137   -7.2121 H       1  UNL1        0.0312
     21 C           0.2705   -1.6641   -6.2696 C.3     1  UNL1       -0.0307
     22 H           0.5939   -2.6878   -5.9881 H       1  UNL1        0.0309
     23 C          -0.5661   -1.7820   -7.5424 C.3     1  UNL1       -0.0311
     24 C           0.2970   -2.4748   -8.5679 C.2     1  UNL1       -0.0839
     25 C           1.5930   -2.4697   -8.5321 C.2     1  UNL1       -0.0648
     26 C           2.4190   -1.7236   -7.5089 C.3     1  UNL1       -0.0078
     27 C           3.2340   -2.7398   -6.7187 C.3     1  UNL1       -0.0413
     28 C           3.0620   -4.1313   -7.3281 C.3     1  UNL1       -0.0258
     29 C           3.3661   -4.1436   -8.8226 C.3     1  UNL1        0.0590
     30 H           3.2783   -5.1685   -9.1960 H       1  UNL1        0.0596
     31 C           2.3712   -3.2514   -9.5773 C.3     1  UNL1       -0.0051
     32 O           4.6983   -3.6816   -9.0504 O.3     1  UNL1       -0.3915
     33 C           3.3833   -0.7945   -8.2524 C.3     1  UNL1       -0.0556
     34 C          -0.5615    1.2856   -6.0796 C.3     1  UNL1       -0.0590
     35 C          -0.0299   -3.8391    0.3768 C.3     1  UNL1       -0.0439
     36 C           1.0307   -3.1195    1.2124 C.3     1  UNL1       -0.0624
     37 C          -1.4082   -3.6198    1.0037 C.3     1  UNL1       -0.0624
     38 H           1.4510   -5.5879   -0.8877 H       1  UNL1        0.0230
     39 H           0.6189   -5.5020   -2.4588 H       1  UNL1        0.0230
     40 H           2.3904   -5.3481   -2.3804 H       1  UNL1        0.0230
     41 H           1.3545   -3.1321   -2.6974 H       1  UNL1        0.0265
     42 H           2.1303   -3.2261   -1.0982 H       1  UNL1        0.0265
     43 H           0.6395   -1.3029   -0.5064 H       1  UNL1        0.0268
     44 H          -1.1250   -1.5294   -0.4471 H       1  UNL1        0.0268
     45 H           0.5757   -1.4538   -2.9806 H       1  UNL1        0.0268
     46 H          -1.1888   -1.6803   -2.9213 H       1  UNL1        0.0268
     47 H          -2.4598    0.1030   -1.4497 H       1  UNL1        0.0233
     48 H          -1.1197    0.3764   -0.3107 H       1  UNL1        0.0233
     49 H          -1.7323    1.7209   -1.3034 H       1  UNL1        0.0233
     50 H          -2.7623   -0.4574   -3.2009 H       1  UNL1        0.0268
     51 H          -3.0867    0.7198   -4.5041 H       1  UNL1        0.0268
     52 H          -2.3627   -2.0189   -4.8601 H       1  UNL1        0.0268
     53 H          -2.3318   -0.7671   -6.1336 H       1  UNL1        0.0268
     54 H           1.6202    0.6799   -3.5790 H       1  UNL1        0.0271
     55 H           1.6521    1.6449   -5.0535 H       1  UNL1        0.0271
     56 H           2.3242   -1.2716   -4.6629 H       1  UNL1        0.0268
     57 H           3.2035   -0.0132   -5.5544 H       1  UNL1        0.0268
     58 H          -1.4525   -2.3849   -7.3531 H       1  UNL1        0.0310
     59 H          -0.8477   -0.8013   -7.9114 H       1  UNL1        0.0310
     60 H          -0.1944   -3.0009   -9.3702 H       1  UNL1        0.0572
     61 H           2.8901   -2.7615   -5.6838 H       1  UNL1        0.0274
     62 H           4.2873   -2.4608   -6.7398 H       1  UNL1        0.0274
     63 H           2.0375   -4.4685   -7.1652 H       1  UNL1        0.0290
     64 H           3.7399   -4.8226   -6.8216 H       1  UNL1        0.0290
     65 H           1.6818   -3.8786  -10.1512 H       1  UNL1        0.0335
     66 H           2.8952   -2.5814  -10.2536 H       1  UNL1        0.0335
     67 H           4.9628   -3.6871   -9.9805 H       1  UNL1        0.2098
     68 H           2.8141   -0.0897   -8.8585 H       1  UNL1        0.0238
     69 H           3.9890   -0.2465   -7.5307 H       1  UNL1        0.0238
     70 H           4.0332   -1.3861   -8.8973 H       1  UNL1        0.0238
     71 H          -0.5762    2.3369   -5.7923 H       1  UNL1        0.0235
     72 H           0.1270    1.1463   -6.9131 H       1  UNL1        0.0235
     73 H          -1.5628    0.9769   -6.3799 H       1  UNL1        0.0235
     74 H           0.1913   -4.9060    0.3495 H       1  UNL1        0.0298
     75 H           0.8095   -2.0526    1.2396 H       1  UNL1        0.0232
     76 H           1.0256   -3.5177    2.2270 H       1  UNL1        0.0232
     77 H           2.0127   -3.2757    0.7657 H       1  UNL1        0.0232
     78 H          -2.1694   -4.0910    0.3817 H       1  UNL1        0.0232
     79 H          -1.4286   -4.0615    2.0000 H       1  UNL1        0.0232
     80 H          -1.6086   -2.5508    1.0759 H       1  UNL1        0.0232
@<TRIPOS>BOND
     1     1     2    1
     2     1    38    1
     3     1    39    1
     4     1    40    1
     5     2     3    1
     6     2    41    1
     7     2    42    1
     8     3     4    1
     9     3     5    1
    10     3    35    1
    11     5     6    1
    12     5    43    1
    13     5    44    1
    14     6     7    1
    15     6    45    1
    16     6    46    1
    17     7     8    1
    18     7     9    1
    19     7    10    1
    20     9    47    1
    21     9    48    1
    22     9    49    1
    23    10    11    1
    24    10    16    1
    25    10    12    1
    26    12    13    1
    27    12    50    1
    28    12    51    1
    29    13    14    1
    30    13    52    1
    31    13    53    1
    32    14    15    1
    33    14    21    1
    34    14    16    1
    35    16    17    1
    36    16    34    1
    37    17    18    1
    38    17    54    1
    39    17    55    1
    40    18    19    1
    41    18    56    1
    42    18    57    1
    43    19    20    1
    44    19    26    1
    45    19    21    1
    46    21    22    1
    47    21    23    1
    48    23    24    1
    49    23    58    1
    50    23    59    1
    51    24    25    2
    52    24    60    1
    53    25    31    1
    54    25    26    1
    55    26    27    1
    56    26    33    1
    57    27    28    1
    58    27    61    1
    59    27    62    1
    60    28    29    1
    61    28    63    1
    62    28    64    1
    63    29    30    1
    64    29    31    1
    65    29    32    1
    66    31    65    1
    67    31    66    1
    68    32    67    1
    69    33    68    1
    70    33    69    1
    71    33    70    1
    72    34    71    1
    73    34    72    1
    74    34    73    1
    75    35    36    1
    76    35    37    1
    77    35    74    1
    78    36    75    1
    79    36    76    1
    80    36    77    1
    81    37    78    1
    82    37    79    1
    83    37    80    1
