@<TRIPOS>MOLECULE
ZINC03830285
 57 60 0 0 0
SMALL
GASTEIGER

@<TRIPOS>ATOM
      1 C           2.2268   -0.6747    3.9786 C.3     1  UNL1       -0.0594
      2 C           3.5944   -0.5242    3.3131 C.3     1  UNL1       -0.0071
      3 H           4.3186   -0.1315    4.0257 H       1  UNL1        0.0330
      4 C           3.4914    0.4212    2.0902 C.3     1  UNL1       -0.0436
      5 C           4.4854   -0.1887    1.0897 C.3     1  UNL1       -0.0263
      6 H           5.5030    0.0168    1.4396 H       1  UNL1        0.0311
      7 C           4.3494    0.2959   -0.3237 C.3     1  UNL1        0.0003
      8 H           5.1646   -0.2029   -0.8996 H       1  UNL1        0.0336
      9 C           4.5814    1.7920   -0.4850 C.3     1  UNL1       -0.0432
     10 C           3.4809    2.6106    0.1622 C.3     1  UNL1       -0.0301
     11 C           2.1412    1.9296    0.1544 C.2     1  UNL1       -0.0532
     12 C           1.1678    2.5495    0.8486 C.2     1  UNL1       -0.0148
     13 C          -0.1605    1.9098    0.9483 C.2     1  UNL1        0.1787
     14 O          -1.1732    2.5639    1.1711 O.2     1  UNL1       -0.2879
     15 C          -0.2129    0.4412    0.7730 C.2     1  UNL1       -0.0180
     16 C           0.7621   -0.1533    0.0635 C.2     1  UNL1       -0.0674
     17 C           1.8545    0.6518   -0.5562 C.3     1  UNL1        0.0443
     18 C           3.0573   -0.1213   -1.0109 C.3     1  UNL1        0.1526
     19 C           2.9293   -1.6370   -0.9142 C.3     1  UNL1        0.0910
     20 H           3.8112   -2.0855   -1.4041 H       1  UNL1        0.0626
     21 C           2.9184   -2.0761    0.5472 C.3     1  UNL1       -0.0151
     22 C           4.2307   -1.7072    1.2365 C.3     1  UNL1        0.0096
     23 C           4.0753   -1.8826    2.7665 C.3     1  UNL1        0.1340
     24 C           3.0948   -2.9659    3.1188 C.2     1  UNL1        0.1904
     25 O           1.9711   -2.9299    2.6779 O.2     1  UNL1       -0.2919
     26 C           3.5139   -4.0969    4.0223 C.3     1  UNL1        0.1052
     27 O           2.4151   -4.9918    4.2062 O.3     1  UNL1       -0.3874
     28 O           5.3531   -2.1946    3.3426 O.3     1  UNL1       -0.3802
     29 C           5.4112   -2.5266    0.7025 C.3     1  UNL1       -0.0562
     30 O           1.7793   -2.1132   -1.6060 O.3     1  UNL1       -0.3886
     31 F           3.2229    0.1804   -2.3813 F       1  UNL1       -0.2377
     32 C           1.2320    1.1298   -1.8850 C.3     1  UNL1       -0.0493
     33 H           2.2999   -1.3842    4.8028 H       1  UNL1        0.0233
     34 H           1.8999    0.2927    4.3599 H       1  UNL1        0.0233
     35 H           1.5053   -1.0399    3.2477 H       1  UNL1        0.0233
     36 H           2.4761    0.4052    1.6992 H       1  UNL1        0.0272
     37 H           3.7879    1.4306    2.3714 H       1  UNL1        0.0272
     38 H           5.5481    2.0612   -0.0344 H       1  UNL1        0.0272
     39 H           4.6439    2.0409   -1.5537 H       1  UNL1        0.0272
     40 H           3.7519    2.8493    1.1938 H       1  UNL1        0.0310
     41 H           3.3800    3.5627   -0.3771 H       1  UNL1        0.0310
     42 H           1.3650    3.5118    1.3294 H       1  UNL1        0.0656
     43 H          -1.0223   -0.1492    1.2052 H       1  UNL1        0.0653
     44 H           0.7195   -1.2368   -0.0413 H       1  UNL1        0.0583
     45 H           2.0858   -1.6063    1.0620 H       1  UNL1        0.0297
     46 H           2.7902   -3.1631    0.5626 H       1  UNL1        0.0297
     47 H           4.2789   -4.5892    3.6071 H       1  UNL1        0.0637
     48 H           3.8213   -3.6957    4.9880 H       1  UNL1        0.0637
     49 H           2.6134   -5.7457    4.7783 H       1  UNL1        0.2100
     50 H           5.3325   -2.3186    4.3014 H       1  UNL1        0.2108
     51 H           5.5335   -2.3353   -0.3636 H       1  UNL1        0.0236
     52 H           6.3209   -2.2395    1.2299 H       1  UNL1        0.0236
     53 H           5.2185   -3.5876    0.8615 H       1  UNL1        0.0236
     54 H           1.6655   -3.0726   -1.5662 H       1  UNL1        0.2099
     55 H           0.3428    1.7247   -1.6764 H       1  UNL1        0.0242
     56 H           1.9563    1.7371   -2.4278 H       1  UNL1        0.0242
     57 H           0.9573    0.2653   -2.4893 H       1  UNL1        0.0242
@<TRIPOS>BOND
     1     1     2    1
     2     1    33    1
     3     1    34    1
     4     1    35    1
     5     2     3    1
     6     2    23    1
     7     2     4    1
     8     4     5    1
     9     4    36    1
    10     4    37    1
    11     5     6    1
    12     5    22    1
    13     5     7    1
    14     7     8    1
    15     7    18    1
    16     7     9    1
    17     9    10    1
    18     9    38    1
    19     9    39    1
    20    10    11    1
    21    10    40    1
    22    10    41    1
    23    11    17    1
    24    11    12    2
    25    12    13    1
    26    12    42    1
    27    13    14    2
    28    13    15    1
    29    15    16    2
    30    15    43    1
    31    16    17    1
    32    16    44    1
    33    17    18    1
    34    17    32    1
    35    18    19    1
    36    18    31    1
    37    19    20    1
    38    19    21    1
    39    19    30    1
    40    21    22    1
    41    21    45    1
    42    21    46    1
    43    22    23    1
    44    22    29    1
    45    23    24    1
    46    23    28    1
    47    24    25    2
    48    24    26    1
    49    26    27    1
    50    26    47    1
    51    26    48    1
    52    27    49    1
    53    28    50    1
    54    29    51    1
    55    29    52    1
    56    29    53    1
    57    30    54    1
    58    32    55    1
    59    32    56    1
    60    32    57    1
