@<TRIPOS>MOLECULE
ZINC00388524
 29 31 0 0 0
SMALL
GASTEIGER

@<TRIPOS>ATOM
      1 C          -3.1355    4.7233   -4.3380 C.ar    1  UNL1        0.0984
      2 N          -4.4910    4.7748   -4.3704 N.ar    1  UNL1       -0.3116
      3 H          -4.9551    5.1504   -5.1726 H       1  UNL1        0.1698
      4 C          -5.2178    4.3214   -3.3247 C.ar    1  UNL1        0.2790
      5 O          -6.4359    4.3639   -3.3435 O.2     1  UNL1       -0.2654
      6 C          -4.5249    3.7957   -2.2057 C.ar    1  UNL1        0.1719
      7 C          -3.1271    3.7778   -2.2369 C.ar    1  UNL1        0.1692
      8 N          -2.4832    4.2429   -3.3167 N.ar    1  UNL1       -0.2178
      9 N          -2.7281    3.2236   -1.0517 N.ar    1  UNL1       -0.2879
     10 C          -3.8514    2.9311   -0.3374 C.ar    1  UNL1        0.1004
     11 N          -4.9077    3.2690   -1.0193 N.ar    1  UNL1       -0.2286
     12 C          -1.3457    2.9924   -0.6254 C.3     1  UNL1        0.1383
     13 H          -0.7067    3.7987   -0.9855 H       1  UNL1        0.0839
     14 C          -0.8459    1.6408   -1.1793 C.3     1  UNL1       -0.0048
     15 C          -0.0127    1.0858    0.0080 C.3     1  UNL1       -0.0203
     16 C          -0.8211    1.6267    1.2141 C.3     1  UNL1        0.0843
     17 H          -1.6677    0.9736    1.4256 H       1  UNL1        0.0620
     18 O          -1.2830    2.9241    0.8040 O.3     1  UNL1       -0.3510
     19 C           0.0789    1.7470    2.4456 C.3     1  UNL1        0.0705
     20 O          -0.7073    2.1351    3.5740 O.3     1  UNL1       -0.3925
     21 H          -2.5785    5.0928   -5.1863 H       1  UNL1        0.1028
     22 H          -3.8634    2.4862    0.6466 H       1  UNL1        0.1030
     23 H          -0.2179    1.7900   -2.0577 H       1  UNL1        0.0309
     24 H          -1.6833    0.9815   -1.4073 H       1  UNL1        0.0309
     25 H           0.0021   -0.0041    0.0020 H       1  UNL1        0.0292
     26 H           0.9995    1.4900    0.0005 H       1  UNL1        0.0292
     27 H           0.5515    0.7854    2.6455 H       1  UNL1        0.0583
     28 H           0.8470    2.4983    2.2623 H       1  UNL1        0.0583
     29 H          -0.2007    2.2307    4.3922 H       1  UNL1        0.2095
@<TRIPOS>BOND
     1     1     8   ar
     2     1     2   ar
     3     1    21    1
     4     2     3    1
     5     2     4   ar
     6     4     5    2
     7     4     6   ar
     8     6    11   ar
     9     6     7   ar
    10     7     8   ar
    11     7     9   ar
    12     9    10   ar
    13     9    12    1
    14    10    11   ar
    15    10    22    1
    16    12    13    1
    17    12    18    1
    18    12    14    1
    19    14    15    1
    20    14    23    1
    21    14    24    1
    22    15    16    1
    23    15    25    1
    24    15    26    1
    25    16    17    1
    26    16    18    1
    27    16    19    1
    28    19    20    1
    29    19    27    1
    30    19    28    1
    31    20    29    1
