@<TRIPOS>MOLECULE
ZINC00000083
 28 27 0 0 0
SMALL
GASTEIGER

@<TRIPOS>ATOM
      1 C           2.3819   -1.5387   -2.4754 C.3     1  UNL1       -0.0226
      2 C           1.9446   -0.8605   -1.1755 C.3     1  UNL1        0.1412
      3 H           2.3195    0.1629   -1.1557 H       1  UNL1        0.0786
      4 C           0.4167   -0.8454   -1.0970 C.3     1  UNL1        0.0069
      5 N          -0.0060   -0.0580    0.0688 N.4     1  UNL1        0.2395
      6 C           0.5968    1.2798    0.0008 C.3     1  UNL1       -0.0417
      7 C           0.4324   -0.7307    1.2990 C.3     1  UNL1       -0.0417
      8 C          -1.4699    0.0641    0.0726 C.3     1  UNL1       -0.0417
      9 O           2.4803   -1.5942   -0.0428 O.3     1  UNL1       -0.4422
     10 C           3.6921   -1.2206    0.4097 C.2     1  UNL1        0.3981
     11 O           4.2858   -0.3064   -0.1273 O.2     1  UNL1       -0.2267
     12 N           4.2466   -1.8606    1.4582 N.am    1  UNL1       -0.2950
     13 H           3.4704   -1.5494   -2.5314 H       1  UNL1        0.0267
     14 H           2.0070   -2.5620   -2.4953 H       1  UNL1        0.0267
     15 H           1.9798   -0.9879   -3.3257 H       1  UNL1        0.0267
     16 H           0.0479   -1.8664   -0.9990 H       1  UNL1        0.0851
     17 H           0.0107   -0.3980   -2.0042 H       1  UNL1        0.0851
     18 H           1.6830    1.1892   -0.0020 H       1  UNL1        0.0778
     19 H           0.2715    1.7789   -0.9120 H       1  UNL1        0.0778
     20 H           0.2832    1.8641    0.8659 H       1  UNL1        0.0778
     21 H          -0.0825   -0.2944    2.1549 H       1  UNL1        0.0778
     22 H           0.1968   -1.7930    1.2360 H       1  UNL1        0.0778
     23 H           1.5084   -0.6037    1.4189 H       1  UNL1        0.0778
     24 H          -1.7952    0.5631   -0.8402 H       1  UNL1        0.0778
     25 H          -1.9172   -0.9287    0.1231 H       1  UNL1        0.0778
     26 H          -1.7835    0.6483    0.9377 H       1  UNL1        0.0778
     27 H           3.7726   -2.5904    1.8868 H       1  UNL1        0.1482
     28 H           5.1196   -1.5915    1.7842 H       1  UNL1        0.1482
@<TRIPOS>UNITY_ATOM_ATTR
5 1
charge 1
@<TRIPOS>BOND
     1     1     2    1
     2     1    13    1
     3     1    14    1
     4     1    15    1
     5     2     3    1
     6     2     4    1
     7     2     9    1
     8     4     5    1
     9     4    16    1
    10     4    17    1
    11     5     6    1
    12     5     7    1
    13     5     8    1
    14     6    18    1
    15     6    19    1
    16     6    20    1
    17     7    21    1
    18     7    22    1
    19     7    23    1
    20     8    24    1
    21     8    25    1
    22     8    26    1
    23     9    10    1
    24    10    11    2
    25    10    12   am
    26    12    27    1
    27    12    28    1
