@<TRIPOS>MOLECULE
ZINC03830586
 44 44 0 0 0
SMALL
GASTEIGER

@<TRIPOS>ATOM
      1 C           3.2808    3.4672    1.1160 C.3     1  UNL1       -0.0145
      2 C           2.4654    4.0217   -0.0539 C.3     1  UNL1        0.2005
      3 C           3.1288    3.6211   -1.3731 C.3     1  UNL1       -0.0145
      4 C           2.4061    5.5244    0.0427 C.2     1  UNL1        0.3508
      5 O           1.3387    6.0817    0.1423 O.2     1  UNL1       -0.2463
      6 O           3.5391    6.2437    0.0179 O.3     1  UNL1       -0.4619
      7 C           3.4063    7.6864    0.1152 C.3     1  UNL1        0.0930
      8 C           4.7934    8.3304    0.0703 C.3     1  UNL1       -0.0103
      9 C           4.6534    9.8505    0.1729 C.3     1  UNL1        0.0272
     10 C           6.0197   10.4849    0.1286 C.2     1  UNL1        0.2152
     11 O           7.0080    9.7896    0.0253 O.2     1  UNL1       -0.2756
     12 N           6.1432   11.8249    0.2039 N.am    1  UNL1       -0.3076
     13 C           7.4714   12.4416    0.1610 C.3     1  UNL1        0.0028
     14 C           4.9494   12.6647    0.3287 C.3     1  UNL1        0.0028
     15 O           1.1404    3.4886   -0.0059 O.3     1  UNL1       -0.4750
     16 C           0.2903    3.8580   -1.0001 C.ar    1  UNL1        0.1222
     17 C          -0.9716    3.2878   -1.0824 C.ar    1  UNL1       -0.0185
     18 C          -1.8344    3.6648   -2.0934 C.ar    1  UNL1       -0.0399
     19 C          -1.4405    4.6104   -3.0234 C.ar    1  UNL1        0.0412
     20 C          -0.1820    5.1800   -2.9433 C.ar    1  UNL1       -0.0399
     21 C           0.6837    4.8052   -1.9341 C.ar    1  UNL1       -0.0185
     22 CL         -2.5264    5.0826   -4.2929 Cl      1  UNL1       -0.0835
     23 H           3.3963    2.3896    1.0000 H       1  UNL1        0.0273
     24 H           4.2635    3.9386    1.1297 H       1  UNL1        0.0273
     25 H           2.7634    3.6785    2.0519 H       1  UNL1        0.0273
     26 H           2.4820    3.9008   -2.2046 H       1  UNL1        0.0273
     27 H           4.0859    4.1338   -1.4688 H       1  UNL1        0.0273
     28 H           3.2911    2.5433   -1.3856 H       1  UNL1        0.0273
     29 H           2.8082    8.0532   -0.7189 H       1  UNL1        0.0697
     30 H           2.9164    7.9436    1.0544 H       1  UNL1        0.0697
     31 H           5.3915    7.9635    0.9045 H       1  UNL1        0.0302
     32 H           5.2832    8.0731   -0.8688 H       1  UNL1        0.0302
     33 H           4.0553   10.2174   -0.6613 H       1  UNL1        0.0359
     34 H           4.1636   10.1078    1.1120 H       1  UNL1        0.0359
     35 H           8.2299   11.6645    0.0666 H       1  UNL1        0.0428
     36 H           7.5321   13.1143   -0.6945 H       1  UNL1        0.0428
     37 H           7.6404   13.0047    1.0788 H       1  UNL1        0.0428
     38 H           4.7158   12.8097    1.3835 H       1  UNL1        0.0428
     39 H           5.1350   13.6318   -0.1386 H       1  UNL1        0.0428
     40 H           4.1091   12.1775   -0.1659 H       1  UNL1        0.0428
     41 H          -1.2811    2.5529   -0.3540 H       1  UNL1        0.0654
     42 H          -2.8168    3.2208   -2.1580 H       1  UNL1        0.0633
     43 H           0.1238    5.9177   -3.6704 H       1  UNL1        0.0633
     44 H           1.6659    5.2500   -1.8718 H       1  UNL1        0.0654
@<TRIPOS>BOND
     1     1     2    1
     2     1    23    1
     3     1    24    1
     4     1    25    1
     5     2     3    1
     6     2     4    1
     7     2    15    1
     8     3    26    1
     9     3    27    1
    10     3    28    1
    11     4     5    2
    12     4     6    1
    13     6     7    1
    14     7     8    1
    15     7    29    1
    16     7    30    1
    17     8     9    1
    18     8    31    1
    19     8    32    1
    20     9    10    1
    21     9    33    1
    22     9    34    1
    23    10    11    2
    24    10    12   am
    25    12    13    1
    26    12    14    1
    27    13    35    1
    28    13    36    1
    29    13    37    1
    30    14    38    1
    31    14    39    1
    32    14    40    1
    33    15    16    1
    34    16    21   ar
    35    16    17   ar
    36    17    18   ar
    37    17    41    1
    38    18    19   ar
    39    18    42    1
    40    19    20   ar
    41    19    22    1
    42    20    21   ar
    43    20    43    1
    44    21    44    1
