@<TRIPOS>MOLECULE
ZINC00001931
 41 42 0 0 0
SMALL
GASTEIGER

@<TRIPOS>ATOM
      1 C          -1.3558   -0.5482   -0.1324 C.3     1  UNL1       -0.0432
      2 C           0.8806   -0.5128   -1.0597 C.3     1  UNL1       -0.0432
      3 C          -0.0178    1.4648    0.0101 C.3     1  UNL1        0.0026
      4 C          -0.7340    1.9582    1.2689 C.3     1  UNL1        0.1291
      5 O           0.0202    1.5840    2.4236 O.3     1  UNL1       -0.4864
      6 C          -0.4813    1.9487    3.6329 C.ar    1  UNL1        0.1242
      7 C          -1.6749    2.6524    3.7066 C.ar    1  UNL1       -0.0197
      8 C          -2.1824    3.0220    4.9369 C.ar    1  UNL1       -0.0583
      9 C          -1.5023    2.6909    6.0945 C.ar    1  UNL1       -0.0613
     10 C          -0.3132    1.9894    6.0238 C.ar    1  UNL1       -0.0548
     11 C           0.1963    1.6132    4.7958 C.ar    1  UNL1       -0.0014
     12 C           1.4897    0.8436    4.7196 C.3     1  UNL1        0.0010
     13 C           2.6324    1.8018    4.5023 C.ar    1  UNL1       -0.0429
     14 C           3.0257    2.1283    3.2179 C.ar    1  UNL1       -0.0583
     15 C           4.0707    3.0110    3.0185 C.ar    1  UNL1       -0.0615
     16 C           4.7289    3.5594    4.1035 C.ar    1  UNL1       -0.0617
     17 C           4.3392    3.2284    5.3878 C.ar    1  UNL1       -0.0615
     18 C           3.2908    2.3498    5.5872 C.ar    1  UNL1       -0.0583
     19 H          -1.7961   -0.1995   -1.0665 H       1  UNL1        0.0777
     20 H          -1.3121   -1.6374   -0.1356 H       1  UNL1        0.0777
     21 H          -1.9667   -0.2116    0.7052 H       1  UNL1        0.0777
     22 H           1.8955   -0.1504   -0.8963 H       1  UNL1        0.0777
     23 H           0.8769   -1.6027   -1.0433 H       1  UNL1        0.0777
     24 H           0.5213   -0.1628   -2.0275 H       1  UNL1        0.0777
     25 H           1.0047    1.8421    0.0024 H       1  UNL1        0.0848
     26 H          -0.5450    1.8259   -0.8730 H       1  UNL1        0.0848
     27 H          -0.8273    3.0436    1.2320 H       1  UNL1        0.0751
     28 H          -1.7261    1.5098    1.3219 H       1  UNL1        0.0751
     29 H          -2.2068    2.9106    2.8029 H       1  UNL1        0.0654
     30 H          -3.1114    3.5697    4.9948 H       1  UNL1        0.0619
     31 H          -1.9010    2.9805    7.0556 H       1  UNL1        0.0618
     32 H           0.2159    1.7317    6.9293 H       1  UNL1        0.0622
     33 H           1.6441    0.2994    5.6514 H       1  UNL1        0.0363
     34 H           1.4444    0.1380    3.8900 H       1  UNL1        0.0363
     35 H           2.5142    1.6967    2.3703 H       1  UNL1        0.0620
     36 H           4.3754    3.2693    2.0151 H       1  UNL1        0.0618
     37 H           5.5477    4.2461    3.9477 H       1  UNL1        0.0618
     38 H           4.8535    3.6566    6.2354 H       1  UNL1        0.0618
     39 H           2.9863    2.0912    6.5906 H       1  UNL1        0.0620
     40 N           0.0127   -0.0129    0.0272 N.4     1  UNL1        0.2333
     41 H           0.3912   -0.3283    0.9280 H       1  UNL1        0.2029
@<TRIPOS>UNITY_ATOM_ATTR
40 1
charge 1
@<TRIPOS>BOND
     1     1    19    1
     2     1    20    1
     3     1    21    1
     4     1    40    1
     5     2    22    1
     6     2    23    1
     7     2    24    1
     8     2    40    1
     9     3     4    1
    10     3    25    1
    11     3    26    1
    12     3    40    1
    13     4     5    1
    14     4    27    1
    15     4    28    1
    16     5     6    1
    17     6    11   ar
    18     6     7   ar
    19     7     8   ar
    20     7    29    1
    21     8     9   ar
    22     8    30    1
    23     9    10   ar
    24     9    31    1
    25    10    11   ar
    26    10    32    1
    27    11    12    1
    28    12    13    1
    29    12    33    1
    30    12    34    1
    31    13    18   ar
    32    13    14   ar
    33    14    15   ar
    34    14    35    1
    35    15    16   ar
    36    15    36    1
    37    16    17   ar
    38    16    37    1
    39    17    18   ar
    40    17    38    1
    41    18    39    1
    42    40    41    1
