@<TRIPOS>MOLECULE
ZINC03830287
 57 60 0 0 0
SMALL
GASTEIGER

@<TRIPOS>ATOM
      1 C          -2.0885   -4.6211   -4.5551 C.3     1  UNL1       -0.0594
      2 C          -0.8277   -4.8088   -3.7136 C.3     1  UNL1       -0.0071
      3 H          -0.6728   -5.8664   -3.5028 H       1  UNL1        0.0330
      4 C          -0.9447   -4.0113   -2.3847 C.3     1  UNL1       -0.0436
      5 C           0.0521   -2.8505   -2.5680 C.3     1  UNL1       -0.0263
      6 H          -0.4293   -2.0839   -3.1971 H       1  UNL1        0.0311
      7 C           0.4956   -2.1870   -1.2714 C.3     1  UNL1        0.0003
      8 H           0.4520   -2.9275   -0.4648 H       1  UNL1        0.0336
      9 C          -0.5433   -1.0991   -0.9924 C.3     1  UNL1       -0.0432
     10 C          -0.1368   -0.1375    0.1213 C.3     1  UNL1       -0.0301
     11 C           1.2109    0.4281   -0.2837 C.2     1  UNL1       -0.0532
     12 C           1.3720    1.7342   -0.4336 C.2     1  UNL1       -0.0148
     13 C           2.6983    2.2779   -0.7786 C.2     1  UNL1        0.1787
     14 O           2.8593    3.4764   -0.9417 O.2     1  UNL1       -0.2879
     15 C           3.8292    1.3438   -0.9275 C.2     1  UNL1       -0.0180
     16 C           3.6323    0.0403   -0.7830 C.2     1  UNL1       -0.0674
     17 C           2.3069   -0.5673   -0.4758 C.3     1  UNL1        0.0443
     18 C           1.9176   -1.6724   -1.4342 C.3     1  UNL1        0.1526
     19 C           2.2083   -1.3026   -2.8852 C.3     1  UNL1        0.0910
     20 H           3.1847   -0.8020   -2.9336 H       1  UNL1        0.0626
     21 C           2.2715   -2.5771   -3.7466 C.3     1  UNL1       -0.0151
     22 C           1.1948   -3.5410   -3.3297 C.3     1  UNL1        0.0096
     23 C           0.4025   -4.2270   -4.4624 C.3     1  UNL1        0.1340
     24 C          -0.0416   -3.2561   -5.5157 C.2     1  UNL1        0.1904
     25 O          -0.1858   -2.0895   -5.2392 O.2     1  UNL1       -0.2919
     26 C          -0.3079   -3.7364   -6.9190 C.3     1  UNL1        0.1052
     27 O          -0.7153   -2.6332   -7.7308 O.3     1  UNL1       -0.3874
     28 O           1.1817   -5.2800   -5.0279 O.3     1  UNL1       -0.3802
     29 C           1.8003   -4.6904   -2.5063 C.3     1  UNL1       -0.0562
     30 O           1.2165   -0.4095   -3.3906 O.3     1  UNL1       -0.3886
     31 F           2.8051   -2.7242   -1.0950 F       1  UNL1       -0.2377
     32 C           2.5028   -1.2537    0.8858 C.3     1  UNL1       -0.0493
     33 H          -1.9704   -5.1388   -5.5070 H       1  UNL1        0.0233
     34 H          -2.9457   -5.0321   -4.0219 H       1  UNL1        0.0233
     35 H          -2.2491   -3.5584   -4.7370 H       1  UNL1        0.0233
     36 H          -1.9570   -3.6258   -2.2594 H       1  UNL1        0.0272
     37 H          -0.6723   -4.6271   -1.5312 H       1  UNL1        0.0272
     38 H          -0.7237   -0.5317   -1.9083 H       1  UNL1        0.0272
     39 H          -1.4859   -1.5863   -0.7137 H       1  UNL1        0.0272
     40 H          -0.0737   -0.6546    1.0760 H       1  UNL1        0.0310
     41 H          -0.8673    0.6760    0.2038 H       1  UNL1        0.0310
     42 H           0.5295    2.4025   -0.3074 H       1  UNL1        0.0656
     43 H           4.8199    1.7208   -1.1495 H       1  UNL1        0.0653
     44 H           4.4779   -0.6264   -0.8882 H       1  UNL1        0.0583
     45 H           2.2061   -2.3122   -4.8019 H       1  UNL1        0.0297
     46 H           3.2547   -3.0514   -3.5950 H       1  UNL1        0.0297
     47 H           0.5257   -4.1388   -7.2974 H       1  UNL1        0.0637
     48 H          -1.0984   -4.4867   -6.9024 H       1  UNL1        0.0637
     49 H          -0.9040   -2.8693   -8.6494 H       1  UNL1        0.2100
     50 H           0.7409   -5.7530   -5.7470 H       1  UNL1        0.2108
     51 H           2.1117   -4.3145   -1.5317 H       1  UNL1        0.0236
     52 H           1.0542   -5.4737   -2.3721 H       1  UNL1        0.0236
     53 H           2.6643   -5.0978   -3.0315 H       1  UNL1        0.0236
     54 H           1.3573   -0.1449   -4.3099 H       1  UNL1        0.2099
     55 H           1.5751   -1.7430    1.1828 H       1  UNL1        0.0242
     56 H           3.2965   -1.9966    0.8073 H       1  UNL1        0.0242
     57 H           2.7755   -0.5081    1.6326 H       1  UNL1        0.0242
@<TRIPOS>BOND
     1     1     2    1
     2     1    33    1
     3     1    34    1
     4     1    35    1
     5     2     3    1
     6     2    23    1
     7     2     4    1
     8     4     5    1
     9     4    36    1
    10     4    37    1
    11     5     6    1
    12     5    22    1
    13     5     7    1
    14     7     8    1
    15     7    18    1
    16     7     9    1
    17     9    10    1
    18     9    38    1
    19     9    39    1
    20    10    11    1
    21    10    40    1
    22    10    41    1
    23    11    17    1
    24    11    12    2
    25    12    13    1
    26    12    42    1
    27    13    14    2
    28    13    15    1
    29    15    16    2
    30    15    43    1
    31    16    17    1
    32    16    44    1
    33    17    18    1
    34    17    32    1
    35    18    19    1
    36    18    31    1
    37    19    20    1
    38    19    21    1
    39    19    30    1
    40    21    22    1
    41    21    45    1
    42    21    46    1
    43    22    23    1
    44    22    29    1
    45    23    24    1
    46    23    28    1
    47    24    25    2
    48    24    26    1
    49    26    27    1
    50    26    47    1
    51    26    48    1
    52    27    49    1
    53    28    50    1
    54    29    51    1
    55    29    52    1
    56    29    53    1
    57    30    54    1
    58    32    55    1
    59    32    56    1
    60    32    57    1
