@<TRIPOS>MOLECULE
ZINC03830947
 53 53 0 0 0
SMALL
GASTEIGER

@<TRIPOS>ATOM
      1 C          -0.1346   -0.4682    0.5663 C.3     0  UNK0       -0.0303
      2 C          -1.1975   -0.8198   -0.4766 C.3     0  UNK0        0.1284
      3 H          -1.8521    0.0379   -0.6316 H       0  UNK0        0.0687
      4 C          -0.5259   -1.1805   -1.7765 C.2     0  UNK0        0.2456
      5 O          -0.6173   -2.3081   -2.2139 O.2     0  UNK0       -0.2726
      6 N           0.1764   -0.2501   -2.4531 N.am    0  UNK0       -0.2816
      7 C           0.8817   -0.6085   -3.6087 C.ar    0  UNK0        0.0615
      8 C           2.2061   -1.0106   -3.5142 C.ar    0  UNK0        0.0487
      9 C           2.9115   -1.3734   -4.6642 C.ar    0  UNK0        0.0654
     10 C           2.2862   -1.3205   -5.9092 C.ar    0  UNK0        0.0397
     11 C           0.9567   -0.9109   -6.0008 C.ar    0  UNK0        0.0654
     12 C           0.2560   -0.5551   -4.8458 C.ar    0  UNK0        0.0487
     13 I          -1.7418    0.0607   -4.9820 I       0  UNK0       -0.0411
     14 C           0.2894   -0.8537   -7.3180 C.2     0  UNK0        0.2465
     15 O           0.3299    0.1677   -7.9761 O.2     0  UNK0       -0.2701
     16 N          -0.3643   -1.9338   -7.7898 N.am    1  SER1       -0.3040
     17 CA         -1.0259   -1.8770   -9.0957 C.3     1  SER1        0.0695
     18 CB         -1.1350   -3.2893   -9.6739 C.3     1  SER1        0.0647
     19 OG         -1.9953   -4.0769   -8.8482 O.3     1  SER1       -0.3931
     20 C          -2.4264   -1.2831   -8.9325 C.3     1  SER1        0.0647
     21 O          -3.2275   -2.1626   -8.1407 O.3     1  SER1       -0.3931
     22 I           3.3415   -1.8560   -7.6379 I       0  UNK0       -0.0422
     23 C           4.3206   -1.8065   -4.5620 C.2     0  UNK0        0.2465
     24 O           5.2153   -0.9868   -4.6358 O.2     0  UNK0       -0.2701
     25 N           4.6139   -3.1102   -4.3869 N.am    1  SER1       -0.3040
     26 CA          6.0109   -3.5396   -4.2855 C.3     1  SER1        0.0695
     27 CB          6.4870   -3.3893   -2.8392 C.3     1  SER1        0.0647
     28 OG          5.7543   -4.2853   -2.0011 O.3     1  SER1       -0.3931
     29 C           6.1263   -5.0048   -4.7108 C.3     1  SER1        0.0647
     30 O           5.4102   -5.8267   -3.7869 O.3     1  SER1       -0.3931
     31 I           3.1471   -1.0813   -1.6438 I       0  UNK0       -0.0411
     32 O          -1.9689   -1.9304   -0.0148 O.3     0  UNK0       -0.3828
     33 H           0.5200   -1.3259    0.7212 H       0  UNK0        0.0259
     34 H           0.4539    0.3789    0.2140 H       0  UNK0        0.0259
     35 H          -0.6203   -0.2073    1.5065 H       0  UNK0        0.0259
     36 H           0.1932    0.6677   -2.1397 H       0  UNK0        0.1549
     37 H          -0.3967   -2.7487   -7.2647 H       1  SER1        0.1495
     38 HA         -0.4426   -1.2518   -9.7716 H       1  SER1        0.0544
     39 HB1        -1.5459   -3.2384  -10.6822 H       1  SER1        0.0576
     40 HB2        -0.1457   -3.7457   -9.7073 H       1  SER1        0.0576
     41 H          -2.1109   -4.9865   -9.1555 H       1  SER1        0.2095
     42 H1         -2.3548   -0.3138   -8.4391 H       1  SER1        0.0576
     43 H2         -2.8848   -1.1584   -9.9135 H       1  SER1        0.0576
     44 H          -4.1306   -1.8487   -7.9959 H       1  SER1        0.2095
     45 H           3.9000   -3.7643   -4.3280 H       1  SER1        0.1495
     46 HA          6.6290   -2.9223   -4.9374 H       1  SER1        0.0544
     47 HB1         7.5498   -3.6238   -2.7803 H       1  SER1        0.0576
     48 HB2         6.3221   -2.3643   -2.5071 H       1  SER1        0.0576
     49 H           6.0044   -4.2441   -1.0679 H       1  SER1        0.2095
     50 H1          5.7051   -5.1277   -5.7086 H       1  SER1        0.0576
     51 H2          7.1759   -5.2986   -4.7207 H       1  SER1        0.0576
     52 H           5.4403   -6.7706   -3.9950 H       1  SER1        0.2095
     53 H          -1.4500   -2.7307    0.1446 H       0  UNK0        0.2104
@<TRIPOS>BOND
     1     1     2    1
     2     1    33    1
     3     1    34    1
     4     1    35    1
     5     2     3    1
     6     2     4    1
     7     2    32    1
     8     4     5    2
     9     4     6   am
    10     6     7    1
    11     6    36    1
    12     7    12   ar
    13     7     8   ar
    14     8     9   ar
    15     8    31    1
    16     9    10   ar
    17     9    23    1
    18    10    11   ar
    19    10    22    1
    20    11    12   ar
    21    11    14    1
    22    12    13    1
    23    14    15    2
    24    14    16   am
    25    16    17    1
    26    16    37    1
    27    17    18    1
    28    17    20    1
    29    17    38    1
    30    18    19    1
    31    18    39    1
    32    18    40    1
    33    19    41    1
    34    20    21    1
    35    20    42    1
    36    20    43    1
    37    21    44    1
    38    23    24    2
    39    23    25   am
    40    25    26    1
    41    25    45    1
    42    26    27    1
    43    26    29    1
    44    26    46    1
    45    27    28    1
    46    27    47    1
    47    27    48    1
    48    28    49    1
    49    29    30    1
    50    29    50    1
    51    29    51    1
    52    30    52    1
    53    32    53    1
