@<TRIPOS>MOLECULE
ZINC01530747
 46 49 0 0 0
SMALL
GASTEIGER

@<TRIPOS>ATOM
      1 C          -2.6316    2.0566   -1.2892 C.3     1  UNL1       -0.0029
      2 C          -1.3925    1.2391   -1.5493 C.ar    1  UNL1        0.1469
      3 C          -1.2705   -0.1231   -1.4397 C.ar    1  UNL1        0.1060
      4 C           0.1394   -0.3578   -1.8158 C.ar    1  UNL1        0.1257
      5 N           0.6242    0.8288   -2.0795 N.ar    1  UNL1       -0.0773
      6 O          -0.2004    1.6980   -1.9370 O.2     1  UNL1       -0.3586
      7 C           0.8511   -1.6576   -1.8805 C.ar    1  UNL1        0.0044
      8 C           0.5554   -2.6634   -0.9623 C.ar    1  UNL1       -0.0524
      9 C           1.2163   -3.8731   -1.0312 C.ar    1  UNL1       -0.0611
     10 C           2.1792   -4.0838   -2.0017 C.ar    1  UNL1       -0.0617
     11 C           2.4812   -3.0868   -2.9118 C.ar    1  UNL1       -0.0611
     12 C           1.8222   -1.8755   -2.8562 C.ar    1  UNL1       -0.0524
     13 C          -2.2918   -1.1079   -1.0444 C.2     1  UNL1        0.2502
     14 O          -3.0002   -1.6217   -1.8890 O.2     1  UNL1       -0.2700
     15 N          -2.4413   -1.4398    0.2533 N.am    1  UNL1       -0.2976
     16 CA         -3.4572   -2.4194    0.6465 C.3     1  UNL1        0.1279
     17 HA         -4.2702   -2.4999   -0.0751 H       1  UNL1        0.0622
     18 C          -3.9342   -2.2641    2.0977 C.3     1  UNL1        0.1003
     19 H          -3.5325   -1.4196    2.6577 H       1  UNL1        0.0640
     20 N          -3.3479   -3.6057    2.3386 N.am    1  UNL1       -0.2761
     21 C          -2.8822   -3.7552    1.0694 C.2     1  UNL1        0.2401
     22 O          -2.2526   -4.6206    0.4989 O.2     1  UNL1       -0.2734
     23 CA         -4.2755   -4.6041    2.8701 C.3     1  UNL1        0.0807
     24 HA         -4.3415   -4.4960    3.9527 H       1  UNL1        0.0576
     25 C          -5.6890   -4.4072    2.2439 C.3     1  UNL1        0.0366
     26 S          -5.7421   -2.5594    2.2885 S.3     1  UNL1       -0.1275
     27 C          -6.7836   -5.0243    3.1167 C.3     1  UNL1       -0.0486
     28 C          -5.7501   -4.9389    0.8106 C.3     1  UNL1       -0.0486
     29 C          -3.7692   -5.9839    2.5371 C.2     1  UNL1        0.0635
     30 O          -2.6503   -6.1288    2.1046 O.co2   1  UNL1       -0.5478
     31 H          -2.6551    2.3576   -0.2419 H       1  UNL1        0.0309
     32 H          -2.6209    2.9440   -1.9221 H       1  UNL1        0.0309
     33 H          -3.5149    1.4595   -1.5156 H       1  UNL1        0.0309
     34 H          -0.1931   -2.4984   -0.2014 H       1  UNL1        0.0624
     35 H           0.9848   -4.6548   -0.3229 H       1  UNL1        0.0618
     36 H           2.6969   -5.0304   -2.0493 H       1  UNL1        0.0618
     37 H           3.2338   -3.2568   -3.6674 H       1  UNL1        0.0618
     38 H           2.0587   -1.0978   -3.5673 H       1  UNL1        0.0624
     39 H          -1.8763   -1.0300    0.9269 H       1  UNL1        0.1499
     40 H          -7.7612   -4.7206    2.7422 H       1  UNL1        0.0244
     41 H          -6.7040   -6.1109    3.0852 H       1  UNL1        0.0244
     42 H          -6.6656   -4.6809    4.1445 H       1  UNL1        0.0244
     43 H          -4.9146   -4.5363    0.2378 H       1  UNL1        0.0244
     44 H          -5.6905   -6.0272    0.8239 H       1  UNL1        0.0244
     45 H          -6.6885   -4.6320    0.3489 H       1  UNL1        0.0244
     46 OXT        -4.5612   -7.0519    2.7210 O.co2   1  UNL1       -0.5478
@<TRIPOS>UNITY_ATOM_ATTR
46 1
charge -1
@<TRIPOS>BOND
     1     1     2    1
     2     1    31    1
     3     1    32    1
     4     1    33    1
     5     2     6   ar
     6     2     3   ar
     7     3     4   ar
     8     3    13    1
     9     4     5   ar
    10     4     7    1
    11     5     6   ar
    12     7    12   ar
    13     7     8   ar
    14     8     9   ar
    15     8    34    1
    16     9    10   ar
    17     9    35    1
    18    10    11   ar
    19    10    36    1
    20    11    12   ar
    21    11    37    1
    22    12    38    1
    23    13    14    2
    24    13    15   am
    25    15    16    1
    26    15    39    1
    27    16    17    1
    28    16    21    1
    29    16    18    1
    30    18    19    1
    31    18    26    1
    32    18    20    1
    33    20    21   am
    34    20    23    1
    35    21    22    2
    36    23    24    1
    37    23    25    1
    38    23    29    1
    39    25    26    1
    40    25    27    1
    41    25    28    1
    42    27    40    1
    43    27    41    1
    44    27    42    1
    45    28    43    1
    46    28    44    1
    47    28    45    1
    48    29    30   ar
    49    29    46   ar
