@<TRIPOS>MOLECULE
ZINC01530613
 58 59 0 0 0
SMALL
GASTEIGER

@<TRIPOS>ATOM
      1 C          -4.0802   -6.2190    0.3668 C.3     1  UNL1       -0.0245
      2 C          -2.6862   -5.8479    0.8766 C.3     1  UNL1       -0.0347
      3 C          -1.7122   -7.8495   -0.0761 C.3     1  UNL1       -0.0347
      4 C          -1.1610   -8.4065    1.2380 C.3     1  UNL1       -0.0245
      5 C          -1.8314   -5.8183   -1.3886 C.3     1  UNL1        0.0032
      6 C          -1.5365   -4.3174   -1.3523 C.3     1  UNL1        0.1320
      7 O          -0.1409   -4.1065   -1.0115 O.3     1  UNL1       -0.4589
      8 C           0.2829   -2.8350   -0.9376 C.2     1  UNL1        0.3138
      9 O          -0.4868   -1.9283   -1.1508 O.2     1  UNL1       -0.2502
     10 C           1.7186   -2.5383   -0.5889 C.3     1  UNL1        0.0706
     11 C           2.0377   -3.1151    0.7918 C.3     1  UNL1       -0.0370
     12 C           1.8194   -4.6293    0.7749 C.3     1  UNL1       -0.0520
     13 C           2.7397   -5.2657   -0.2687 C.3     1  UNL1       -0.0530
     14 C           2.4206   -4.6889   -1.6495 C.3     1  UNL1       -0.0520
     15 C           2.6389   -3.1747   -1.6325 C.3     1  UNL1       -0.0370
     16 C           1.9370   -1.0241   -0.5720 C.3     1  UNL1       -0.0253
     17 C           1.0167   -0.3878    0.4716 C.3     1  UNL1       -0.0492
     18 C           1.2351    1.1265    0.4885 C.3     1  UNL1       -0.0528
     19 C           2.6927    1.4277    0.8426 C.3     1  UNL1       -0.0530
     20 C           3.6130    0.7913   -0.2010 C.3     1  UNL1       -0.0528
     21 C           3.3947   -0.7229   -0.2180 C.3     1  UNL1       -0.0492
     22 H          -4.2218   -5.8105   -0.6338 H       1  UNL1        0.0281
     23 H          -4.1779   -7.3041    0.3334 H       1  UNL1        0.0281
     24 H          -4.8340   -5.8068    1.0376 H       1  UNL1        0.0281
     25 H          -2.5374   -6.2726    1.8694 H       1  UNL1        0.0812
     26 H          -2.5951   -4.7630    0.9282 H       1  UNL1        0.0812
     27 H          -2.7422   -8.1810   -0.2076 H       1  UNL1        0.0812
     28 H          -1.1056   -8.2105   -0.9066 H       1  UNL1        0.0812
     29 H          -0.1298   -8.0778    1.3677 H       1  UNL1        0.0281
     30 H          -1.7655   -8.0427    2.0688 H       1  UNL1        0.0281
     31 H          -1.1949   -9.4957    1.2136 H       1  UNL1        0.0281
     32 H          -2.8538   -5.9795   -1.7304 H       1  UNL1        0.0848
     33 H          -1.1382   -6.3084   -2.0722 H       1  UNL1        0.0848
     34 H          -2.1694   -3.8407   -0.6038 H       1  UNL1        0.0752
     35 H          -1.7411   -3.8832   -2.3309 H       1  UNL1        0.0752
     36 H           3.0762   -2.9005    1.0440 H       1  UNL1        0.0276
     37 H           1.3821   -2.6617    1.5353 H       1  UNL1        0.0276
     38 H           0.7809   -4.8439    0.5227 H       1  UNL1        0.0266
     39 H           2.0468   -5.0402    1.7586 H       1  UNL1        0.0266
     40 H           2.5841   -6.3444   -0.2808 H       1  UNL1        0.0265
     41 H           3.7781   -5.0511   -0.0165 H       1  UNL1        0.0265
     42 H           1.3821   -4.9035   -1.9017 H       1  UNL1        0.0266
     43 H           3.0762   -5.1422   -2.3929 H       1  UNL1        0.0266
     44 H           2.4115   -2.7638   -2.6162 H       1  UNL1        0.0276
     45 H           3.6774   -2.9601   -1.3803 H       1  UNL1        0.0276
     46 H           1.7096   -0.6132   -1.5557 H       1  UNL1        0.0311
     47 H           1.2441   -0.7986    1.4553 H       1  UNL1        0.0268
     48 H          -0.0218   -0.6023    0.2194 H       1  UNL1        0.0268
     49 H           1.0077    1.5374   -0.4951 H       1  UNL1        0.0265
     50 H           0.5795    1.5798    1.2320 H       1  UNL1        0.0265
     51 H           2.8483    2.5064    0.8546 H       1  UNL1        0.0265
     52 H           2.9201    1.0168    1.8262 H       1  UNL1        0.0265
     53 H           4.6515    1.0059    0.0512 H       1  UNL1        0.0265
     54 H           3.3857    1.2022   -1.1847 H       1  UNL1        0.0265
     55 H           3.6220   -1.1338    0.7657 H       1  UNL1        0.0268
     56 H           4.0503   -1.1762   -0.9614 H       1  UNL1        0.0268
     57 N          -1.6452   -6.3736   -0.0315 N.4     1  UNL1        0.2372
     58 H          -0.7226   -6.0921    0.3203 H       1  UNL1        0.2034
@<TRIPOS>UNITY_ATOM_ATTR
57 1
charge 1
@<TRIPOS>BOND
     1     1     2    1
     2     1    22    1
     3     1    23    1
     4     1    24    1
     5     2    25    1
     6     2    26    1
     7     2    57    1
     8     3     4    1
     9     3    27    1
    10     3    28    1
    11     3    57    1
    12     4    29    1
    13     4    30    1
    14     4    31    1
    15     5     6    1
    16     5    32    1
    17     5    33    1
    18     5    57    1
    19     6     7    1
    20     6    34    1
    21     6    35    1
    22     7     8    1
    23     8     9    2
    24     8    10    1
    25    10    15    1
    26    10    11    1
    27    10    16    1
    28    11    12    1
    29    11    36    1
    30    11    37    1
    31    12    13    1
    32    12    38    1
    33    12    39    1
    34    13    14    1
    35    13    40    1
    36    13    41    1
    37    14    15    1
    38    14    42    1
    39    14    43    1
    40    15    44    1
    41    15    45    1
    42    16    21    1
    43    16    17    1
    44    16    46    1
    45    17    18    1
    46    17    47    1
    47    17    48    1
    48    18    19    1
    49    18    49    1
    50    18    50    1
    51    19    20    1
    52    19    51    1
    53    19    52    1
    54    20    21    1
    55    20    53    1
    56    20    54    1
    57    21    55    1
    58    21    56    1
    59    57    58    1
