@<TRIPOS>MOLECULE
ZINC11616236
 71 74 0 0 0
SMALL
GASTEIGER

@<TRIPOS>ATOM
      1 C           6.1550   -0.3738   -0.5521 C.3     1  UNL1       -0.0653
      2 C           5.6153    0.2452    0.7388 C.3     1  UNL1       -0.0554
      3 C           4.0867    0.1784    0.7362 C.3     1  UNL1       -0.0432
      4 C           3.5470    0.7974    2.0271 C.3     1  UNL1        0.0450
      5 C           2.0414    0.7315    2.0246 C.2     1  UNL1        0.3080
      6 O           1.4598    0.2399    1.0866 O.2     1  UNL1       -0.2508
      7 O           1.3466    1.2190    3.0644 O.3     1  UNL1       -0.4494
      8 C          -0.0916    1.0198    3.0477 C.3     1  UNL1        0.1810
      9 C          -0.4198   -0.4783    3.1895 C.3     1  UNL1        0.0041
     10 H          -1.0248   -0.8095    2.3455 H       1  UNL1        0.0341
     11 C          -1.2175   -0.6312    4.5066 C.3     1  UNL1       -0.0426
     12 C          -0.8037    0.6081    5.3221 C.3     1  UNL1       -0.0253
     13 H           0.1921    0.4494    5.7358 H       1  UNL1        0.0311
     14 C          -0.7420    1.7271    4.2667 C.3     1  UNL1        0.0208
     15 C          -2.1396    2.1663    3.8243 C.3     1  UNL1       -0.0141
     16 C          -3.0167    2.5000    5.0224 C.3     1  UNL1        0.0910
     17 H          -4.0028    2.8135    4.6796 H       1  UNL1        0.0626
     18 C          -3.1518    1.2651    5.9186 C.3     1  UNL1        0.1526
     19 C          -1.7696    0.8968    6.4452 C.3     1  UNL1        0.0003
     20 H          -1.3905    1.7336    7.0318 H       1  UNL1        0.0336
     21 C          -1.9148   -0.3270    7.3598 C.3     1  UNL1       -0.0432
     22 C          -2.5732    0.1396    8.6594 C.3     1  UNL1       -0.0301
     23 C          -3.8001    0.9510    8.3631 C.2     1  UNL1       -0.0532
     24 C          -4.6540    1.2191    9.3781 C.2     1  UNL1       -0.0148
     25 C          -5.8138    2.0755    9.0066 C.2     1  UNL1        0.1787
     26 O          -6.9422    1.8619    9.4089 O.2     1  UNL1       -0.2879
     27 C          -5.4857    3.2138    8.1040 C.2     1  UNL1       -0.0180
     28 C          -4.6261    2.9199    7.1039 C.2     1  UNL1       -0.0674
     29 C          -4.1448    1.4987    7.0201 C.3     1  UNL1        0.0443
     30 C          -5.3795    0.7057    6.5870 C.3     1  UNL1       -0.0493
     31 F          -3.6150    0.2102    5.1250 F       1  UNL1       -0.2377
     32 O          -2.4037    3.5616    5.7568 O.3     1  UNL1       -0.3886
     33 C           0.0953    2.9135    4.7487 C.3     1  UNL1       -0.0551
     34 C           0.8729   -1.2936    3.2606 C.3     1  UNL1       -0.0583
     35 C          -0.6734    1.5580    1.7660 C.2     1  UNL1        0.2024
     36 O          -1.5988    0.9900    1.2376 O.2     1  UNL1       -0.2907
     37 C          -0.1003    2.8051    1.1437 C.3     1  UNL1        0.1063
     38 O          -0.7475    3.0547   -0.1057 O.3     1  UNL1       -0.3874
     39 H           5.8369   -1.4143   -0.6167 H       1  UNL1        0.0230
     40 H           5.7686    0.1781   -1.4090 H       1  UNL1        0.0230
     41 H           7.2439   -0.3261   -0.5503 H       1  UNL1        0.0230
     42 H           5.9333    1.2858    0.8034 H       1  UNL1        0.0263
     43 H           6.0017   -0.3067    1.5956 H       1  UNL1        0.0263
     44 H           3.7687   -0.8622    0.6716 H       1  UNL1        0.0270
     45 H           3.7003    0.7303   -0.1206 H       1  UNL1        0.0270
     46 H           3.8650    1.8380    2.0917 H       1  UNL1        0.0377
     47 H           3.9334    0.2455    2.8840 H       1  UNL1        0.0377
     48 H          -0.9297   -1.5457    5.0252 H       1  UNL1        0.0272
     49 H          -2.2900   -0.6225    4.3125 H       1  UNL1        0.0272
     50 H          -2.0516    3.0289    3.1638 H       1  UNL1        0.0298
     51 H          -2.6173    1.3494    3.2834 H       1  UNL1        0.0298
     52 H          -2.5411   -1.0771    6.8768 H       1  UNL1        0.0272
     53 H          -0.9321   -0.7478    7.5727 H       1  UNL1        0.0272
     54 H          -2.8513   -0.7299    9.2550 H       1  UNL1        0.0310
     55 H          -1.8674    0.7509    9.2218 H       1  UNL1        0.0310
     56 H          -4.5060    0.8411   10.3789 H       1  UNL1        0.0656
     57 H          -5.9040    4.2004    8.2386 H       1  UNL1        0.0653
     58 H          -4.3007    3.6702    6.3985 H       1  UNL1        0.0583
     59 H          -6.1825    0.8614    7.3074 H       1  UNL1        0.0242
     60 H          -5.7030    1.0457    5.6031 H       1  UNL1        0.0242
     61 H          -5.1326   -0.3550    6.5418 H       1  UNL1        0.0242
     62 H          -2.2875    4.3758    5.2481 H       1  UNL1        0.2099
     63 H           0.1708    3.6528    3.9513 H       1  UNL1        0.0237
     64 H          -0.3813    3.3649    5.6188 H       1  UNL1        0.0237
     65 H           1.0930    2.5679    5.0194 H       1  UNL1        0.0237
     66 H           1.5353   -0.8600    4.0098 H       1  UNL1        0.0234
     67 H           0.6390   -2.3225    3.5343 H       1  UNL1        0.0234
     68 H           1.3654   -1.2794    2.2883 H       1  UNL1        0.0234
     69 H           0.8804    2.6816    0.9922 H       1  UNL1        0.0638
     70 H          -0.2610    3.6514    1.8116 H       1  UNL1        0.0638
     71 H          -0.4278    3.8443   -0.5634 H       1  UNL1        0.2100
@<TRIPOS>BOND
     1     1     2    1
     2     1    39    1
     3     1    40    1
     4     1    41    1
     5     2     3    1
     6     2    42    1
     7     2    43    1
     8     3     4    1
     9     3    44    1
    10     3    45    1
    11     4     5    1
    12     4    46    1
    13     4    47    1
    14     5     6    2
    15     5     7    1
    16     7     8    1
    17     8    14    1
    18     8     9    1
    19     8    35    1
    20     9    10    1
    21     9    11    1
    22     9    34    1
    23    11    12    1
    24    11    48    1
    25    11    49    1
    26    12    13    1
    27    12    19    1
    28    12    14    1
    29    14    15    1
    30    14    33    1
    31    15    16    1
    32    15    50    1
    33    15    51    1
    34    16    17    1
    35    16    18    1
    36    16    32    1
    37    18    29    1
    38    18    19    1
    39    18    31    1
    40    19    20    1
    41    19    21    1
    42    21    22    1
    43    21    52    1
    44    21    53    1
    45    22    23    1
    46    22    54    1
    47    22    55    1
    48    23    29    1
    49    23    24    2
    50    24    25    1
    51    24    56    1
    52    25    26    2
    53    25    27    1
    54    27    28    2
    55    27    57    1
    56    28    29    1
    57    28    58    1
    58    29    30    1
    59    30    59    1
    60    30    60    1
    61    30    61    1
    62    32    62    1
    63    33    63    1
    64    33    64    1
    65    33    65    1
    66    34    66    1
    67    34    67    1
    68    34    68    1
    69    35    36    2
    70    35    37    1
    71    37    38    1
    72    37    69    1
    73    37    70    1
    74    38    71    1
