@<TRIPOS>MOLECULE
ZINC00056648
 31 31 0 0 0
SMALL
GASTEIGER

@<TRIPOS>ATOM
      1 C           4.3232    8.6732   -0.4116 C.3     1  UNL1       -0.0306
      2 C           2.9991    7.9221   -0.2586 C.3     1  UNL1        0.0898
      3 O           3.2541    6.4930   -0.2272 O.3     1  UNL1       -0.4622
      4 C           2.1890    5.6867   -0.0963 C.2     1  UNL1        0.3508
      5 O           1.0803    6.1593   -0.0108 O.2     1  UNL1       -0.2463
      6 C           2.3760    4.1919   -0.0560 C.3     1  UNL1        0.2005
      7 C           3.2682    3.8213    1.1305 C.3     1  UNL1       -0.0145
      8 C           3.0355    3.7252   -1.3553 C.3     1  UNL1       -0.0145
      9 O           1.1042    3.5564    0.0877 O.3     1  UNL1       -0.4750
     10 C           0.3898    3.8512    1.2058 C.ar    1  UNL1        0.1222
     11 C          -0.7943    3.1789    1.4708 C.ar    1  UNL1       -0.0185
     12 C          -1.5187    3.4797    2.6080 C.ar    1  UNL1       -0.0399
     13 C          -1.0639    4.4507    3.4824 C.ar    1  UNL1        0.0412
     14 C           0.1168    5.1227    3.2196 C.ar    1  UNL1       -0.0399
     15 C           0.8437    4.8251    2.0833 C.ar    1  UNL1       -0.0185
     16 CL         -1.9759    4.8269    4.9109 Cl      1  UNL1       -0.0835
     17 H           4.9735    8.4386    0.4311 H       1  UNL1        0.0262
     18 H           4.8077    8.3701   -1.3398 H       1  UNL1        0.0262
     19 H           4.1317    9.7460   -0.4352 H       1  UNL1        0.0262
     20 H           2.3488    8.1567   -1.1013 H       1  UNL1        0.0694
     21 H           2.5146    8.2252    0.6696 H       1  UNL1        0.0694
     22 H           3.5704    2.7775    1.0457 H       1  UNL1        0.0273
     23 H           4.1536    4.4570    1.1318 H       1  UNL1        0.0273
     24 H           2.7161    3.9654    2.0592 H       1  UNL1        0.0273
     25 H           2.3626    3.9127   -2.1920 H       1  UNL1        0.0273
     26 H           3.9658    4.2723   -1.5075 H       1  UNL1        0.0273
     27 H           3.2478    2.6579   -1.2920 H       1  UNL1        0.0273
     28 H          -1.1474    2.4178    0.7908 H       1  UNL1        0.0654
     29 H          -2.4408    2.9567    2.8145 H       1  UNL1        0.0633
     30 H           0.4700    5.8806    3.9032 H       1  UNL1        0.0633
     31 H           1.7652    5.3498    1.8785 H       1  UNL1        0.0654
@<TRIPOS>BOND
     1     1     2    1
     2     1    17    1
     3     1    18    1
     4     1    19    1
     5     2     3    1
     6     2    20    1
     7     2    21    1
     8     3     4    1
     9     4     5    2
    10     4     6    1
    11     6     7    1
    12     6     8    1
    13     6     9    1
    14     7    22    1
    15     7    23    1
    16     7    24    1
    17     8    25    1
    18     8    26    1
    19     8    27    1
    20     9    10    1
    21    10    15   ar
    22    10    11   ar
    23    11    12   ar
    24    11    28    1
    25    12    13   ar
    26    12    29    1
    27    13    14   ar
    28    13    16    1
    29    14    15   ar
    30    14    30    1
    31    15    31    1
