@<TRIPOS>MOLECULE
ZINC03831224
 48 51 0 0 0
SMALL
GASTEIGER

@<TRIPOS>ATOM
      1 C          -1.7527    0.5600   -1.7014 C.3     1  UNL1       -0.0558
      2 C          -0.7331    1.5969   -1.2166 C.3     1  UNL1        0.0111
      3 C           0.1879    0.9894   -0.1899 C.3     1  UNL1       -0.0433
      4 C          -0.3262    1.2463    1.2395 C.3     1  UNL1       -0.0456
      5 C          -1.8366    1.3694    1.2336 C.3     1  UNL1       -0.0165
      6 H          -2.2590    0.5118    0.7134 H       1  UNL1        0.0348
      7 C          -2.2546    2.6497    0.5094 C.3     1  UNL1       -0.0308
      8 H          -2.0750    3.4905    1.2125 H       1  UNL1        0.0309
      9 C          -1.4163    2.8786   -0.7002 C.3     1  UNL1       -0.0286
     10 H          -0.6223    3.6130   -0.4369 H       1  UNL1        0.0310
     11 C          -2.1117    3.4027   -1.9644 C.3     1  UNL1       -0.0458
     12 C          -1.0695    3.1244   -3.0825 C.3     1  UNL1       -0.0118
     13 C          -0.0362    2.1387   -2.4819 C.3     1  UNL1        0.1317
     14 C           0.2333    1.0372   -3.4149 C.1     1  UNL1       -0.0704
     15 C           0.4487    0.1566   -4.1608 C.1     1  UNL1       -0.1163
     16 O           1.1646    2.8203   -2.1326 O.3     1  UNL1       -0.3760
     17 C          -3.7629    2.5495    0.3080 C.3     1  UNL1       -0.0457
     18 C          -4.3833    2.6853    1.6983 C.3     1  UNL1       -0.0308
     19 C          -3.6314    1.9346    2.7766 C.2     1  UNL1       -0.0629
     20 C          -2.4726    1.3602    2.6081 C.2     1  UNL1       -0.0661
     21 C          -1.6951    0.6323    3.6726 C.3     1  UNL1       -0.0245
     22 C          -2.2303    0.8689    5.0791 C.3     1  UNL1        0.0098
     23 C          -3.7444    0.8352    4.9923 C.2     1  UNL1        0.1376
     24 O          -4.4062    0.0263    5.5959 O.2     1  UNL1       -0.2971
     25 C          -4.3704    1.8779    4.1038 C.3     1  UNL1        0.0272
     26 H          -2.4284    0.3056   -0.8849 H       1  UNL1        0.0236
     27 H          -2.3253    0.9741   -2.5314 H       1  UNL1        0.0236
     28 H          -1.2293   -0.3368   -2.0328 H       1  UNL1        0.0236
     29 H           0.2641   -0.0934   -0.3579 H       1  UNL1        0.0272
     30 H           1.1951    1.4127   -0.2916 H       1  UNL1        0.0272
     31 H          -0.0228    0.4156    1.8844 H       1  UNL1        0.0271
     32 H           0.1182    2.1678    1.6273 H       1  UNL1        0.0271
     33 H          -3.0438    2.8787   -2.1546 H       1  UNL1        0.0269
     34 H          -2.2955    4.4764   -1.8774 H       1  UNL1        0.0269
     35 H          -1.5579    2.6780   -3.9479 H       1  UNL1        0.0303
     36 H          -0.5754    4.0526   -3.3697 H       1  UNL1        0.0303
     37 H           0.6413   -0.6310   -4.8280 H       1  UNL1        0.1229
     38 H           1.6456    3.1825   -2.8893 H       1  UNL1        0.2114
     39 H          -4.1152    3.3596   -0.3298 H       1  UNL1        0.0271
     40 H          -4.0320    1.5871   -0.1208 H       1  UNL1        0.0271
     41 H          -4.4077    3.7436    1.9619 H       1  UNL1        0.0310
     42 H          -5.4067    2.3139    1.6575 H       1  UNL1        0.0310
     43 H          -0.6532    0.9605    3.6420 H       1  UNL1        0.0314
     44 H          -1.7217   -0.4398    3.4632 H       1  UNL1        0.0314
     45 H          -1.9113    1.7562    5.4122 H       1  UNL1        0.0345
     46 H          -1.8795    0.0801    5.7475 H       1  UNL1        0.0345
     47 H          -4.3169    2.7695    4.5535 H       1  UNL1        0.0387
     48 H          -5.4133    1.6236    3.9253 H       1  UNL1        0.0387
@<TRIPOS>BOND
     1     1     2    1
     2     1    26    1
     3     1    27    1
     4     1    28    1
     5     2     9    1
     6     2    13    1
     7     2     3    1
     8     3     4    1
     9     3    29    1
    10     3    30    1
    11     4     5    1
    12     4    31    1
    13     4    32    1
    14     5     6    1
    15     5    20    1
    16     5     7    1
    17     7     8    1
    18     7     9    1
    19     7    17    1
    20     9    10    1
    21     9    11    1
    22    11    12    1
    23    11    33    1
    24    11    34    1
    25    12    13    1
    26    12    35    1
    27    12    36    1
    28    13    14    1
    29    13    16    1
    30    14    15    3
    31    15    37    1
    32    16    38    1
    33    17    18    1
    34    17    39    1
    35    17    40    1
    36    18    19    1
    37    18    41    1
    38    18    42    1
    39    19    25    1
    40    19    20    2
    41    20    21    1
    42    21    22    1
    43    21    43    1
    44    21    44    1
    45    22    23    1
    46    22    45    1
    47    22    46    1
    48    23    24    2
    49    23    25    1
    50    25    47    1
    51    25    48    1
