@<TRIPOS>MOLECULE
ZINC12358688
 28 29 0 0 0
SMALL
GASTEIGER

@<TRIPOS>ATOM
      1 C          -2.5239    2.9321    2.9867 C.3     1  UNL1        0.0727
      2 C          -2.9160    2.6262    1.5397 C.3     1  UNL1        0.1069
      3 H          -3.6063    3.3897    1.1812 H       1  UNL1        0.0643
      4 C          -1.6626    2.6195    0.6623 C.3     1  UNL1        0.1181
      5 H          -1.1950    3.6041    0.6614 H       1  UNL1        0.0650
      6 C          -2.0175    2.1888   -0.7833 C.3     1  UNL1        0.1148
      7 H          -2.7630    1.3936   -0.7838 H       1  UNL1        0.0648
      8 C          -0.6455    1.6679   -1.2859 C.3     1  UNL1        0.1408
      9 H          -0.7228    0.9387   -2.0923 H       1  UNL1        0.0675
     10 C          -0.0127    1.0858    0.0080 C.3     1  UNL1        0.1913
     11 H           0.0021   -0.0041    0.0020 H       1  UNL1        0.0939
     12 O          -0.7273    1.6042    1.1347 O.3     1  UNL1       -0.3400
     13 O           1.3214    1.6464   -0.0017 O.3     1  UNL1       -0.3157
     14 C           1.1248    2.9640   -0.5591 C.3     1  UNL1        0.2093
     15 H           0.7245    3.6374    0.1988 H       1  UNL1        0.0955
     16 O           0.1755    2.7980   -1.6274 O.3     1  UNL1       -0.3363
     17 C           2.4462    3.5095   -1.1044 C.3     1  UNL1        0.2409
     18 CL          3.0858    2.3876   -2.3627 Cl      1  UNL1       -0.0780
     19 CL          2.1702    5.1354   -1.8332 Cl      1  UNL1       -0.0780
     20 CL          3.6396    3.6481    0.2399 Cl      1  UNL1       -0.0780
     21 O          -2.4592    3.3049   -1.5586 O.3     1  UNL1       -0.3864
     22 O          -3.5477    1.3459    1.4779 O.3     1  UNL1       -0.3869
     23 O          -3.7034    3.0536    3.7842 O.3     1  UNL1       -0.3924
     24 H          -1.9050    2.1229    3.3743 H       1  UNL1        0.0584
     25 H          -1.9639    3.8666    3.0216 H       1  UNL1        0.0584
     26 H          -2.5929    3.1050   -2.4952 H       1  UNL1        0.2100
     27 H          -2.9900    0.6171    1.7826 H       1  UNL1        0.2100
     28 H          -3.5302    3.2478    4.7156 H       1  UNL1        0.2095
@<TRIPOS>BOND
     1     1     2    1
     2     1    23    1
     3     1    24    1
     4     1    25    1
     5     2     3    1
     6     2     4    1
     7     2    22    1
     8     4     5    1
     9     4    12    1
    10     4     6    1
    11     6     7    1
    12     6     8    1
    13     6    21    1
    14     8     9    1
    15     8    16    1
    16     8    10    1
    17    10    11    1
    18    10    12    1
    19    10    13    1
    20    13    14    1
    21    14    15    1
    22    14    16    1
    23    14    17    1
    24    17    18    1
    25    17    19    1
    26    17    20    1
    27    21    26    1
    28    22    27    1
    29    23    28    1
