@<TRIPOS>MOLECULE
ZINC03830494
 67 69 0 0 0
SMALL
GASTEIGER

@<TRIPOS>ATOM
      1 C          -2.9025    7.5427    4.2746 C.3     1  UNL1        0.0100
      2 C          -3.0756    6.0233    4.2281 C.3     1  UNL1        0.2468
      3 H          -3.9685    5.7420    4.7864 H       1  UNL1        0.1204
      4 O          -3.2125    5.5938    2.8478 O.3     1  UNL1       -0.4206
      5 C          -2.2137    5.9197    2.0037 C.2     1  UNL1        0.3567
      6 O          -1.2091    6.4547    2.4289 O.2     1  UNL1       -0.2434
      7 C          -2.3400    5.6269    0.5645 C.2     1  UNL1        0.1255
      8 C          -2.9629    6.4835   -0.2307 C.2     1  UNL1        0.0057
      9 C          -3.1543    6.4069   -1.7103 C.3     1  UNL1        0.0220
     10 S          -2.9130    4.7114   -2.3594 S.3     1  UNL1       -0.1310
     11 C          -1.4627    4.1720   -1.3925 C.3     1  UNL1        0.1042
     12 H          -0.5103    4.5682   -1.7447 H       1  UNL1        0.0644
     13 N          -1.7998    4.4403    0.0419 N.am    1  UNL1       -0.2489
     14 C          -1.5651    3.1799    0.4462 C.2     1  UNL1        0.2440
     15 O          -1.4764    2.6398    1.5285 O.2     1  UNL1       -0.2731
     16 C          -1.4559    2.7007   -0.9914 C.3     1  UNL1        0.1286
     17 H          -2.3298    2.1489   -1.3376 H       1  UNL1        0.0622
     18 N          -0.1953    2.0161   -1.2888 N.am    1  UNL1       -0.2963
     19 C          -0.1808    0.6811   -1.4737 C.2     1  UNL1        0.2699
     20 O          -1.2124    0.0448   -1.3889 O.2     1  UNL1       -0.2683
     21 C           1.0938   -0.0108   -1.7807 C.2     1  UNL1        0.2059
     22 N           2.2014    0.6725   -1.8718 N.2     1  UNL1       -0.0763
     23 O           3.4189    0.0116   -2.1650 O.2     1  UNL1       -0.3964
     24 C           4.5504    0.8816   -2.2346 C.3     1  UNL1        0.1072
     25 C           1.1097   -1.4701   -1.9828 C.ar    1  UNL1        0.1612
     26 C           2.2067   -2.2263   -2.2690 C.ar    1  UNL1       -0.0141
     27 C           1.7639   -3.5574   -2.3767 C.ar    1  UNL1       -0.0232
     28 C           0.4333   -3.5514   -2.1539 C.ar    1  UNL1        0.0926
     29 O           0.0430   -2.2905   -1.9113 O.2     1  UNL1       -0.4611
     30 C          -3.5553    7.6933    0.4450 C.3     1  UNL1        0.1182
     31 O          -3.0460    8.8979   -0.1858 O.3     1  UNL1       -0.4460
     32 C          -3.3986   10.0735    0.3676 C.2     1  UNL1        0.3980
     33 O          -4.1853   10.0976    1.2933 O.2     1  UNL1       -0.2267
     34 N          -2.8788   11.2237   -0.1051 N.am    1  UNL1       -0.2950
     35 O          -1.9135    5.3854    4.8204 O.3     1  UNL1       -0.4230
     36 C          -1.9602    4.0523    4.9704 C.2     1  UNL1        0.3417
     37 O          -2.9007    3.4285    4.5389 O.2     1  UNL1       -0.2475
     38 C          -0.8397    3.3338    5.6768 C.3     1  UNL1        0.1596
     39 C           0.4729    3.5758    4.9288 C.3     1  UNL1       -0.0256
     40 C          -0.7165    3.8625    7.1072 C.3     1  UNL1       -0.0256
     41 O          -1.1180    1.9325    5.7092 O.3     1  UNL1       -0.3659
     42 C          -0.1117    1.1549    6.3610 C.3     1  UNL1        0.0379
     43 H          -3.8093    8.0232    3.9073 H       1  UNL1        0.0301
     44 H          -2.7160    7.8559    5.3019 H       1  UNL1        0.0301
     45 H          -2.0588    7.8317    3.6479 H       1  UNL1        0.0301
     46 H          -4.1623    6.7416   -1.9550 H       1  UNL1        0.0424
     47 H          -2.4357    7.0677   -2.1952 H       1  UNL1        0.0424
     48 H           0.6282    2.5241   -1.3566 H       1  UNL1        0.1499
     49 H           5.4430    0.2991   -2.4629 H       1  UNL1        0.0687
     50 H           4.3907    1.6235   -3.0170 H       1  UNL1        0.0687
     51 H           4.6806    1.3856   -1.2769 H       1  UNL1        0.0687
     52 H           3.2199   -1.8724   -2.3894 H       1  UNL1        0.0656
     53 H           2.3741   -4.4211   -2.5963 H       1  UNL1        0.0649
     54 H          -0.2106   -4.4184   -2.1647 H       1  UNL1        0.1029
     55 H          -4.6410    7.6659    0.3525 H       1  UNL1        0.0747
     56 H          -3.2804    7.6914    1.4998 H       1  UNL1        0.0747
     57 H          -2.3080   11.2118   -0.8893 H       1  UNL1        0.1482
     58 H          -3.0756   12.0634    0.3388 H       1  UNL1        0.1482
     59 H           0.6853    4.6446    4.9041 H       1  UNL1        0.0263
     60 H           1.2834    3.0561    5.4398 H       1  UNL1        0.0263
     61 H           0.3852    3.1991    3.9098 H       1  UNL1        0.0263
     62 H          -1.6516    3.6901    7.6401 H       1  UNL1        0.0263
     63 H           0.0940    3.3428    7.6182 H       1  UNL1        0.0263
     64 H          -0.5042    4.9313    7.0825 H       1  UNL1        0.0263
     65 H           0.8385    1.2822    5.8423 H       1  UNL1        0.0524
     66 H          -0.0089    1.4864    7.3943 H       1  UNL1        0.0524
     67 H          -0.3972    0.1031    6.3435 H       1  UNL1        0.0524
@<TRIPOS>BOND
     1     1     2    1
     2     1    43    1
     3     1    44    1
     4     1    45    1
     5     2     3    1
     6     2     4    1
     7     2    35    1
     8     4     5    1
     9     5     6    2
    10     5     7    1
    11     7    13    1
    12     7     8    2
    13     8     9    1
    14     8    30    1
    15     9    10    1
    16     9    46    1
    17     9    47    1
    18    10    11    1
    19    11    12    1
    20    11    16    1
    21    11    13    1
    22    13    14   am
    23    14    15    2
    24    14    16    1
    25    16    17    1
    26    16    18    1
    27    18    19   am
    28    18    48    1
    29    19    20    2
    30    19    21    1
    31    21    22    2
    32    21    25    1
    33    22    23    1
    34    23    24    1
    35    24    49    1
    36    24    50    1
    37    24    51    1
    38    25    29   ar
    39    25    26   ar
    40    26    27   ar
    41    26    52    1
    42    27    28   ar
    43    27    53    1
    44    28    29   ar
    45    28    54    1
    46    30    31    1
    47    30    55    1
    48    30    56    1
    49    31    32    1
    50    32    33    2
    51    32    34   am
    52    34    57    1
    53    34    58    1
    54    35    36    1
    55    36    37    2
    56    36    38    1
    57    38    39    1
    58    38    40    1
    59    38    41    1
    60    39    59    1
    61    39    60    1
    62    39    61    1
    63    40    62    1
    64    40    63    1
    65    40    64    1
    66    41    42    1
    67    42    65    1
    68    42    66    1
    69    42    67    1
