@<TRIPOS>MOLECULE
ZINC03830355
 73 75 0 0 0
SMALL
GASTEIGER

@<TRIPOS>ATOM
      1 C           1.6486   -0.0485   -3.4413 C.3     1  UNL1       -0.0621
      2 C           2.0013   -0.3448   -1.9823 C.3     1  UNL1       -0.0405
      3 H           3.0530   -0.1164   -1.8092 H       1  UNL1        0.0301
      4 C           1.1342    0.5175   -1.0628 C.3     1  UNL1       -0.0501
      5 C           1.4805    1.9931   -1.2713 C.3     1  UNL1       -0.0502
      6 C           0.6134    2.8553   -0.3518 C.3     1  UNL1       -0.0245
      7 C           0.9596    4.3310   -0.5603 C.3     1  UNL1        0.0605
      8 C           0.1838    5.1840    0.4453 C.3     1  UNL1       -0.0363
      9 C           2.4614    4.5368   -0.3522 C.3     1  UNL1       -0.0363
     10 O           0.6051    4.7203   -1.8888 O.3     1  UNL1       -0.3891
     11 C           1.7450   -1.8237   -1.6858 C.3     1  UNL1       -0.0325
     12 H           0.7045   -2.0755   -1.8909 H       1  UNL1        0.0309
     13 C           2.6937   -2.7147   -2.5297 C.3     1  UNL1       -0.0489
     14 C           3.4843   -3.5916   -1.5179 C.3     1  UNL1       -0.0457
     15 C           2.5577   -3.6215   -0.3004 C.3     1  UNL1       -0.0139
     16 H           1.7127   -4.2899   -0.4654 H       1  UNL1        0.0351
     17 C           2.0897   -2.1399   -0.2387 C.3     1  UNL1       -0.0225
     18 C           0.9925   -2.0500    0.7961 C.3     1  UNL1       -0.0465
     19 C           1.6303   -2.3067    2.1718 C.3     1  UNL1       -0.0488
     20 C           2.3026   -3.6766    2.2380 C.3     1  UNL1       -0.0312
     21 C           3.1989   -3.8957    1.0275 C.2     1  UNL1       -0.0659
     22 C           4.4632   -4.3026    1.1395 C.2     1  UNL1       -0.0620
     23 C           5.1600   -4.8565   -0.0237 C.2     1  UNL1       -0.0583
     24 C           6.4747   -5.1489    0.0537 C.2     1  UNL1       -0.0423
     25 C           7.2675   -4.9131    1.3238 C.3     1  UNL1       -0.0013
     26 C           8.1039   -6.1708    1.6059 C.3     1  UNL1        0.0595
     27 H           7.4416   -7.0210    1.7692 H       1  UNL1        0.0596
     28 C           9.0177   -6.4599    0.4144 C.3     1  UNL1       -0.0226
     29 C           8.1742   -6.8436   -0.8057 C.3     1  UNL1       -0.0256
     30 C           7.2129   -5.7088   -1.0976 C.2     1  UNL1       -0.0511
     31 C           7.0419   -5.2382   -2.3329 C.2     1  UNL1       -0.0952
     32 O           8.8992   -5.9571    2.7737 O.3     1  UNL1       -0.3915
     33 C           3.2605   -1.2606    0.2053 C.3     1  UNL1       -0.0588
     34 H           1.8312    1.0051   -3.6525 H       1  UNL1        0.0233
     35 H           2.2664   -0.6628   -4.0964 H       1  UNL1        0.0233
     36 H           0.5969   -0.2768   -3.6144 H       1  UNL1        0.0233
     37 H           1.3217    0.2435   -0.0245 H       1  UNL1        0.0268
     38 H           0.0823    0.3544   -1.2973 H       1  UNL1        0.0268
     39 H           2.5324    2.1561   -1.0368 H       1  UNL1        0.0266
     40 H           1.2930    2.2671   -2.3095 H       1  UNL1        0.0266
     41 H          -0.4386    2.6923   -0.5863 H       1  UNL1        0.0293
     42 H           0.8008    2.5814    0.6864 H       1  UNL1        0.0293
     43 H           0.4542    4.8870    1.4586 H       1  UNL1        0.0257
     44 H           0.4305    6.2352    0.2968 H       1  UNL1        0.0257
     45 H          -0.8861    5.0373    0.2971 H       1  UNL1        0.0257
     46 H           3.0141    3.9291   -1.0687 H       1  UNL1        0.0257
     47 H           2.7081    5.5880   -0.5008 H       1  UNL1        0.0257
     48 H           2.7318    4.2398    0.6611 H       1  UNL1        0.0257
     49 H          -0.3347    4.6163   -2.0915 H       1  UNL1        0.2101
     50 H           2.1137   -3.3482   -3.2008 H       1  UNL1        0.0268
     51 H           3.3810   -2.0921   -3.1025 H       1  UNL1        0.0268
     52 H           4.4377   -3.1268   -1.2665 H       1  UNL1        0.0271
     53 H           3.6381   -4.5965   -1.9111 H       1  UNL1        0.0271
     54 H           0.5449   -1.0563    0.7754 H       1  UNL1        0.0271
     55 H           0.2314   -2.8038    0.5947 H       1  UNL1        0.0271
     56 H           0.8564   -2.2534    2.9376 H       1  UNL1        0.0268
     57 H           2.3756   -1.5354    2.3661 H       1  UNL1        0.0268
     58 H           1.5366   -4.4516    2.2624 H       1  UNL1        0.0310
     59 H           2.9035   -3.7381    3.1453 H       1  UNL1        0.0310
     60 H           4.9738   -4.2239    2.0879 H       1  UNL1        0.0617
     61 H           4.6214   -5.0308   -0.9434 H       1  UNL1        0.0620
     62 H           7.9244   -4.0533    1.1924 H       1  UNL1        0.0338
     63 H           6.5852   -4.7310    2.1541 H       1  UNL1        0.0338
     64 H           9.6891   -7.2817    0.6637 H       1  UNL1        0.0293
     65 H           9.6048   -5.5709    0.1839 H       1  UNL1        0.0293
     66 H           7.6139   -7.7540   -0.5931 H       1  UNL1        0.0314
     67 H           8.8244   -7.0045   -1.6657 H       1  UNL1        0.0314
     68 H           6.3501   -4.4283   -2.5113 H       1  UNL1        0.0538
     69 H           7.5951   -5.6670   -3.1555 H       1  UNL1        0.0538
     70 H           8.3851   -5.7677    3.5705 H       1  UNL1        0.2098
     71 H           2.9293   -0.2249    0.2799 H       1  UNL1        0.0235
     72 H           3.6199   -1.5980    1.1775 H       1  UNL1        0.0235
     73 H           4.0664   -1.3327   -0.5250 H       1  UNL1        0.0235
@<TRIPOS>BOND
     1     1     2    1
     2     1    34    1
     3     1    35    1
     4     1    36    1
     5     2     3    1
     6     2     4    1
     7     2    11    1
     8     4     5    1
     9     4    37    1
    10     4    38    1
    11     5     6    1
    12     5    39    1
    13     5    40    1
    14     6     7    1
    15     6    41    1
    16     6    42    1
    17     7     8    1
    18     7     9    1
    19     7    10    1
    20     8    43    1
    21     8    44    1
    22     8    45    1
    23     9    46    1
    24     9    47    1
    25     9    48    1
    26    10    49    1
    27    11    12    1
    28    11    17    1
    29    11    13    1
    30    13    14    1
    31    13    50    1
    32    13    51    1
    33    14    15    1
    34    14    52    1
    35    14    53    1
    36    15    16    1
    37    15    21    1
    38    15    17    1
    39    17    18    1
    40    17    33    1
    41    18    19    1
    42    18    54    1
    43    18    55    1
    44    19    20    1
    45    19    56    1
    46    19    57    1
    47    20    21    1
    48    20    58    1
    49    20    59    1
    50    21    22    2
    51    22    23    1
    52    22    60    1
    53    23    24    2
    54    23    61    1
    55    24    30    1
    56    24    25    1
    57    25    26    1
    58    25    62    1
    59    25    63    1
    60    26    27    1
    61    26    28    1
    62    26    32    1
    63    28    29    1
    64    28    64    1
    65    28    65    1
    66    29    30    1
    67    29    66    1
    68    29    67    1
    69    30    31    2
    70    31    68    1
    71    31    69    1
    72    32    70    1
    73    33    71    1
    74    33    72    1
    75    33    73    1
