@<TRIPOS>MOLECULE
ZINC12358651
 49 49 0 0 0
SMALL
GASTEIGER

@<TRIPOS>ATOM
      1 C           2.1665    3.1061    1.7992 C.3     1  UNL1       -0.0432
      2 C           1.4008    2.1011    0.9777 C.2     1  UNL1       -0.0689
      3 C           0.5471    2.5538    0.0751 C.2     1  UNL1       -0.0427
      4 C          -0.2897    1.6657   -0.7990 C.3     1  UNL1       -0.0099
      5 C           0.2792    0.2454   -0.8047 C.3     1  UNL1       -0.0436
      6 C           0.5077   -0.1940    0.6466 C.3     1  UNL1       -0.0486
      7 C           1.6459    0.6426    1.2346 C.3     1  UNL1       -0.0314
      8 C          -0.2932    2.2165   -2.2264 C.3     1  UNL1       -0.0558
      9 C          -1.7226    1.6359   -0.2633 C.3     1  UNL1       -0.0558
     10 C           0.4147    3.9574   -0.0756 C.2     1  UNL1       -0.0579
     11 C           1.5011    4.7131   -0.3832 C.2     1  UNL1       -0.0586
     12 C           1.3548    6.0919   -0.6185 C.2     1  UNL1       -0.0504
     13 C           2.4455    6.8506   -0.9273 C.2     1  UNL1       -0.0588
     14 C           2.2996    8.2261   -1.1621 C.2     1  UNL1       -0.0613
     15 C           3.3915    8.9856   -1.4712 C.2     1  UNL1       -0.0588
     16 C           3.2657   10.3774   -1.5945 C.2     1  UNL1       -0.0488
     17 C           4.3276   11.1236   -2.0137 C.2     1  UNL1       -0.0364
     18 C           4.2330   12.5298   -2.0435 C.2     1  UNL1        0.0648
     19 O           3.2397   13.0825   -1.6071 O.co2   1  UNL1       -0.5452
     20 C           1.9572   11.0479   -1.2639 C.3     1  UNL1       -0.0397
     21 C          -0.0070    6.7312   -0.5295 C.3     1  UNL1       -0.0397
     22 H           2.7509    2.5856    2.5578 H       1  UNL1        0.0275
     23 H           2.8350    3.6719    1.1503 H       1  UNL1        0.0275
     24 H           1.4673    3.7878    2.2835 H       1  UNL1        0.0275
     25 H           1.2261    0.2324   -1.3446 H       1  UNL1        0.0274
     26 H          -0.4258   -0.4326   -1.2858 H       1  UNL1        0.0274
     27 H           0.7787   -1.2495    0.6713 H       1  UNL1        0.0269
     28 H          -0.4018   -0.0330    1.2254 H       1  UNL1        0.0269
     29 H           2.5876    0.3475    0.7719 H       1  UNL1        0.0310
     30 H           1.7037    0.4697    2.3092 H       1  UNL1        0.0310
     31 H          -0.9774    1.6307   -2.8402 H       1  UNL1        0.0238
     32 H          -0.6170    3.2572   -2.2134 H       1  UNL1        0.0238
     33 H           0.7123    2.1540   -2.6424 H       1  UNL1        0.0238
     34 H          -1.7228    1.2393    0.7520 H       1  UNL1        0.0238
     35 H          -2.1297    2.6470   -0.2584 H       1  UNL1        0.0238
     36 H          -2.3361    1.0003   -0.9018 H       1  UNL1        0.0238
     37 H          -0.5497    4.4259    0.0541 H       1  UNL1        0.0621
     38 H           2.4770    4.2549   -0.4470 H       1  UNL1        0.0620
     39 H           3.4214    6.3925   -0.9911 H       1  UNL1        0.0620
     40 H           1.3236    8.6843   -1.0983 H       1  UNL1        0.0618
     41 H           4.3519    8.5149   -1.6208 H       1  UNL1        0.0620
     42 H           5.2409   10.6371   -2.3228 H       1  UNL1        0.0638
     43 H           1.2569   10.3074   -0.8775 H       1  UNL1        0.0278
     44 H           2.1238   11.8181   -0.5108 H       1  UNL1        0.0278
     45 H           1.5446   11.5033   -2.1641 H       1  UNL1        0.0278
     46 H          -0.1824    7.0720    0.4909 H       1  UNL1        0.0278
     47 H          -0.0544    7.5815   -1.2098 H       1  UNL1        0.0278
     48 H          -0.7692    6.0024   -0.8052 H       1  UNL1        0.0278
     49 O           5.2441   13.2639   -2.5560 O.co2   1  UNL1       -0.5452
@<TRIPOS>UNITY_ATOM_ATTR
49 1
charge -1
@<TRIPOS>BOND
     1     1     2    1
     2     1    22    1
     3     1    23    1
     4     1    24    1
     5     2     7    1
     6     2     3    2
     7     3     4    1
     8     3    10    1
     9     4     5    1
    10     4     8    1
    11     4     9    1
    12     5     6    1
    13     5    25    1
    14     5    26    1
    15     6     7    1
    16     6    27    1
    17     6    28    1
    18     7    29    1
    19     7    30    1
    20     8    31    1
    21     8    32    1
    22     8    33    1
    23     9    34    1
    24     9    35    1
    25     9    36    1
    26    10    11    2
    27    10    37    1
    28    11    12    1
    29    11    38    1
    30    12    13    2
    31    12    21    1
    32    13    14    1
    33    13    39    1
    34    14    15    2
    35    14    40    1
    36    15    16    1
    37    15    41    1
    38    16    17    2
    39    16    20    1
    40    17    18    1
    41    17    42    1
    42    18    19   ar
    43    18    49   ar
    44    20    43    1
    45    20    44    1
    46    20    45    1
    47    21    46    1
    48    21    47    1
    49    21    48    1
