@<TRIPOS>MOLECULE
ZINC00896512
 58 62 0 0 0
SMALL
GASTEIGER

@<TRIPOS>ATOM
      1 C           2.8381   -4.2195   -1.3020 C.3     1  UNL1        0.0790
      2 O           3.9514   -3.3237   -1.3082 O.3     1  UNL1       -0.4914
      3 C           3.6794   -1.9996   -1.1565 C.ar    1  UNL1        0.1623
      4 C           2.3852   -1.5886   -1.0080 C.ar    1  UNL1       -0.0038
      5 C           2.1036   -0.2260   -0.8518 C.ar    1  UNL1        0.0437
      6 C           3.1603    0.7173   -0.8486 C.ar    1  UNL1        0.0816
      7 C           4.4793    0.2740   -1.0023 C.ar    1  UNL1        0.0099
      8 C           4.7299   -1.0723   -1.1543 C.ar    1  UNL1        0.1635
      9 O           6.0089   -1.5052   -1.3033 O.3     1  UNL1       -0.4914
     10 C           7.0357   -0.5114   -1.2922 C.3     1  UNL1        0.0790
     11 N           2.8649    2.0184   -0.6977 N.ar    1  UNL1       -0.2141
     12 C           1.6124    2.4064   -0.5553 C.ar    1  UNL1        0.2201
     13 N           0.5913    1.5539   -0.5527 N.ar    1  UNL1       -0.1992
     14 C           0.7790    0.2499   -0.6949 C.ar    1  UNL1        0.1291
     15 N          -0.2895   -0.6225   -0.6907 N.pl3   1  UNL1       -0.3425
     16 N           1.3496    3.7564   -0.4024 N.pl3   1  UNL1       -0.2966
     17 C           2.0996    4.3136    0.7311 C.3     1  UNL1        0.0307
     18 C           1.9249    5.8358    0.7562 C.3     1  UNL1        0.0306
     19 N           0.4861    6.1411    0.7522 N.am    1  UNL1       -0.2954
     20 C          -0.3566    5.5085   -0.2739 C.3     1  UNL1        0.0306
     21 C          -0.0920    3.9992   -0.2584 C.3     1  UNL1        0.0307
     22 C          -0.0460    6.9779    1.6649 C.2     1  UNL1        0.2598
     23 O          -1.2145    7.2940    1.5893 O.2     1  UNL1       -0.2714
     24 C           0.8109    7.5210    2.7793 C.3     1  UNL1        0.2092
     25 H           1.7369    7.9229    2.3683 H       1  UNL1        0.0867
     26 C           1.1304    6.4013    3.7790 C.3     1  UNL1        0.1352
     27 O           1.9324    6.9533    4.8287 O.3     1  UNL1       -0.4841
     28 C           1.5188    8.1381    5.3556 C.ar    1  UNL1        0.1621
     29 C           2.0168    8.5478    6.5836 C.ar    1  UNL1       -0.0163
     30 C           1.6086    9.7496    7.1303 C.ar    1  UNL1       -0.0581
     31 C           0.7035   10.5470    6.4547 C.ar    1  UNL1       -0.0581
     32 C           0.2030   10.1444    5.2311 C.ar    1  UNL1       -0.0163
     33 C           0.6072    8.9386    4.6776 C.ar    1  UNL1        0.1632
     34 O           0.1026    8.5535    3.4736 O.3     1  UNL1       -0.4725
     35 H           2.3097   -4.1360   -0.3523 H       1  UNL1        0.0660
     36 H           2.1617   -3.9642   -2.1178 H       1  UNL1        0.0660
     37 H           3.1936   -5.2418   -1.4313 H       1  UNL1        0.0660
     38 H           1.5828   -2.3115   -1.0108 H       1  UNL1        0.0663
     39 H           5.2947    0.9822   -1.0014 H       1  UNL1        0.0677
     40 H           7.0156    0.0212   -0.3413 H       1  UNL1        0.0660
     41 H           8.0064   -0.9905   -1.4198 H       1  UNL1        0.0660
     42 H           6.8682    0.1931   -2.1068 H       1  UNL1        0.0660
     43 H          -1.1919   -0.2835   -0.5827 H       1  UNL1        0.1437
     44 H          -0.1384   -1.5749   -0.7957 H       1  UNL1        0.1437
     45 H           1.7220    3.8888    1.6612 H       1  UNL1        0.0480
     46 H           3.1566    4.0706    0.6226 H       1  UNL1        0.0480
     47 H           2.3943    6.2728   -0.1251 H       1  UNL1        0.0480
     48 H           2.3829    6.2422    1.6580 H       1  UNL1        0.0480
     49 H          -0.1065    5.9140   -1.2542 H       1  UNL1        0.0480
     50 H          -1.4077    5.6982   -0.0565 H       1  UNL1        0.0480
     51 H          -0.6245    3.5280   -1.0846 H       1  UNL1        0.0480
     52 H          -0.4393    3.5783    0.6853 H       1  UNL1        0.0480
     53 H           0.2043    6.0040    4.1944 H       1  UNL1        0.0739
     54 H           1.6797    5.6053    3.2763 H       1  UNL1        0.0739
     55 H           2.7241    7.9268    7.1133 H       1  UNL1        0.0655
     56 H           1.9970   10.0663    8.0869 H       1  UNL1        0.0619
     57 H           0.3871   11.4861    6.8840 H       1  UNL1        0.0619
     58 H          -0.5039   10.7692    4.7054 H       1  UNL1        0.0655
@<TRIPOS>BOND
     1     1     2    1
     2     1    35    1
     3     1    36    1
     4     1    37    1
     5     2     3    1
     6     3     8   ar
     7     3     4   ar
     8     4     5   ar
     9     4    38    1
    10     5    14   ar
    11     5     6   ar
    12     6     7   ar
    13     6    11   ar
    14     7     8   ar
    15     7    39    1
    16     8     9    1
    17     9    10    1
    18    10    40    1
    19    10    41    1
    20    10    42    1
    21    11    12   ar
    22    12    13   ar
    23    12    16    1
    24    13    14   ar
    25    14    15    1
    26    15    43    1
    27    15    44    1
    28    16    21    1
    29    16    17    1
    30    17    18    1
    31    17    45    1
    32    17    46    1
    33    18    19    1
    34    18    47    1
    35    18    48    1
    36    19    20    1
    37    19    22   am
    38    20    21    1
    39    20    49    1
    40    20    50    1
    41    21    51    1
    42    21    52    1
    43    22    23    2
    44    22    24    1
    45    24    25    1
    46    24    34    1
    47    24    26    1
    48    26    27    1
    49    26    53    1
    50    26    54    1
    51    27    28    1
    52    28    33   ar
    53    28    29   ar
    54    29    30   ar
    55    29    55    1
    56    30    31   ar
    57    30    56    1
    58    31    32   ar
    59    31    57    1
    60    32    33   ar
    61    32    58    1
    62    33    34    1
