@<TRIPOS>MOLECULE
ZINC08101085
 119 121 0 0 0
SMALL
GASTEIGER

@<TRIPOS>ATOM
      1 C          -0.7852   -0.4208   -1.0282 C.3     1  UNL1       -0.0618
      2 C          -0.4048   -1.8844   -1.2611 C.3     1  UNL1       -0.0157
      3 C           0.5526   -1.9801   -2.4559 C.3     1  UNL1        0.1335
      4 H           0.0806   -1.5197   -3.3191 H       1  UNL1        0.0764
      5 C           0.8283   -3.4712   -2.7373 C.3     1  UNL1        0.1262
      6 C           1.7340   -3.5588   -3.9616 C.3     1  UNL1        0.0963
      7 H           2.7497   -3.3576   -3.6156 H       1  UNL1        0.0630
      8 C           1.6968   -4.8740   -4.7129 C.3     1  UNL1        0.0437
      9 H           0.7973   -4.9923   -5.1335 H       1  UNL1        0.0401
     10 C           2.7142   -4.8935   -5.8273 C.2     1  UNL1        0.1416
     11 O           2.4634   -5.5134   -6.8426 O.2     1  UNL1       -0.2967
     12 C           4.0445   -4.1746   -5.7435 C.3     1  UNL1        0.0177
     13 H           4.5735   -4.3547   -6.5728 H       1  UNL1        0.0376
     14 C           3.8082   -2.6835   -5.6600 C.3     1  UNL1       -0.0125
     15 C           4.9542   -1.7511   -6.0020 C.3     1  UNL1        0.0903
     16 C           4.6997   -0.4014   -5.3250 C.3     1  UNL1        0.0951
     17 H           3.6221   -0.1856   -5.4021 H       1  UNL1        0.0629
     18 C           5.1257   -0.2738   -3.8763 C.3     1  UNL1        0.0124
     19 H           6.2171   -0.0278   -3.8825 H       1  UNL1        0.0349
     20 C           4.4415    0.9365   -3.2453 C.3     1  UNL1        0.0793
     21 H           4.1279    1.6063   -4.0703 H       1  UNL1        0.0608
     22 C           3.2453    0.6793   -2.3651 C.3     1  UNL1        0.0801
     23 H           2.6891    1.6537   -2.3064 H       1  UNL1        0.0436
     24 C           2.2444   -0.3052   -2.8916 C.2     1  UNL1        0.3128
     25 O           1.8213   -0.1764   -4.0201 O.2     1  UNL1       -0.2504
     26 O           1.7910   -1.3057   -2.1255 O.3     1  UNL1       -0.4581
     27 C           3.6348    0.3585   -0.9224 C.3     1  UNL1       -0.0499
     28 O           5.4266    1.6698   -2.4909 O.3     1  UNL1       -0.3468
     29 C           5.2908    3.0893   -2.5829 C.3     1  UNL1        0.1627
     30 H           5.2108    3.3797   -3.6304 H       1  UNL1        0.0911
     31 C           6.5168    3.7610   -1.9589 C.3     1  UNL1        0.0298
     32 C           6.3362    5.2814   -2.0071 C.3     1  UNL1        0.0991
     33 C           5.0383    5.6535   -1.2838 C.3     1  UNL1        0.1098
     34 H           4.8729    6.7282   -1.3601 H       1  UNL1        0.0648
     35 C           3.8694    4.9087   -1.9339 C.3     1  UNL1        0.0874
     36 H           3.7708    5.2230   -2.9729 H       1  UNL1        0.0621
     37 O           4.1152    3.5019   -1.8829 O.3     1  UNL1       -0.3456
     38 C           2.5775    5.2286   -1.1791 C.3     1  UNL1       -0.0361
     39 O           5.1351    5.2818    0.0926 O.3     1  UNL1       -0.3864
     40 C           7.5201    5.9614   -1.3165 C.3     1  UNL1       -0.0331
     41 O           6.2653    5.7114   -3.3680 O.3     1  UNL1       -0.3740
     42 C           7.4333    5.4103   -4.1343 C.3     1  UNL1        0.0373
     43 C           4.9722   -1.5175   -3.0253 C.3     1  UNL1       -0.0576
     44 O           5.3825    0.6093   -6.0925 O.3     1  UNL1       -0.3421
     45 C           4.5321    1.3396   -6.9788 C.3     1  UNL1        0.1909
     46 H           3.8878    0.6456   -7.5185 H       1  UNL1        0.0939
     47 C           5.3879    2.1234   -7.9773 C.3     1  UNL1        0.1482
     48 H           5.9695    1.4283   -8.5829 H       1  UNL1        0.0702
     49 C           4.4716    2.9501   -8.8846 C.3     1  UNL1        0.0124
     50 H           3.8330    2.2827   -9.4634 H       1  UNL1        0.0879
     51 C           3.6044    3.8672   -8.0168 C.3     1  UNL1        0.0190
     52 C           2.8175    3.0160   -7.0167 C.3     1  UNL1        0.0642
     53 H           2.1505    2.3441   -7.5569 H       1  UNL1        0.0596
     54 O           3.7276    2.2493   -6.2256 O.3     1  UNL1       -0.3454
     55 C           1.9942    3.9293   -6.1062 C.3     1  UNL1       -0.0384
     56 C           6.1697    2.9168  -10.6103 C.3     1  UNL1       -0.0430
     57 C           4.4397    4.6104  -10.6467 C.3     1  UNL1       -0.0430
     58 O           6.2718    2.9941   -7.2684 O.3     1  UNL1       -0.3813
     59 C           6.3440   -2.2774   -5.7046 C.3     1  UNL1       -0.0336
     60 O           4.8900   -1.5119   -7.4315 O.3     1  UNL1       -0.3863
     61 C           4.8198   -4.7280   -4.5501 C.3     1  UNL1       -0.0556
     62 C           1.9045   -6.0922   -3.8177 C.3     1  UNL1       -0.0532
     63 O           1.3021   -2.5265   -4.8698 O.3     1  UNL1       -0.3881
     64 C           1.5233   -4.0409   -1.4984 C.3     1  UNL1       -0.0301
     65 O          -0.4059   -4.1370   -2.9743 O.3     1  UNL1       -0.3826
     66 H           0.1138    0.1597   -0.8209 H       1  UNL1        0.0231
     67 H          -1.2748   -0.0265   -1.9187 H       1  UNL1        0.0231
     68 H          -1.4654   -0.3528   -0.1793 H       1  UNL1        0.0231
     69 H           0.0848   -2.2786   -0.3706 H       1  UNL1        0.0299
     70 H          -1.3038   -2.4648   -1.4684 H       1  UNL1        0.0299
     71 H           3.4119   -2.4000   -4.6886 H       1  UNL1        0.0300
     72 H           2.9911   -2.4504   -6.3849 H       1  UNL1        0.0300
     73 H           4.0729   -0.6386   -0.8775 H       1  UNL1        0.0238
     74 H           4.3616    1.0908   -0.5709 H       1  UNL1        0.0238
     75 H           2.7477    0.3944   -0.2900 H       1  UNL1        0.0238
     76 H           6.6205    3.4392   -0.9226 H       1  UNL1        0.0343
     77 H           7.4094    3.4823   -2.5189 H       1  UNL1        0.0343
     78 H           2.6765    4.9146   -0.1400 H       1  UNL1        0.0255
     79 H           2.3901    6.3017   -1.2181 H       1  UNL1        0.0255
     80 H           1.7455    4.6974   -1.6415 H       1  UNL1        0.0255
     81 H           4.3445    5.4843    0.6113 H       1  UNL1        0.2100
     82 H           7.5749    5.6302   -0.2795 H       1  UNL1        0.0258
     83 H           8.4430    5.6958   -1.8320 H       1  UNL1        0.0258
     84 H           7.3857    7.0427   -1.3459 H       1  UNL1        0.0258
     85 H           7.3004    5.7687   -5.1551 H       1  UNL1        0.0524
     86 H           8.2978    5.9005   -3.6867 H       1  UNL1        0.0524
     87 H           7.5924    4.3320   -4.1456 H       1  UNL1        0.0524
     88 H           3.9172   -1.6775   -2.8027 H       1  UNL1        0.0234
     89 H           5.3641   -2.3787   -3.5665 H       1  UNL1        0.0234
     90 H           5.5249   -1.3912   -2.0943 H       1  UNL1        0.0234
     91 H           4.2418    4.5674   -7.4769 H       1  UNL1        0.0346
     92 H           2.9104    4.4192   -8.6506 H       1  UNL1        0.0346
     93 H           1.3006    4.5146   -6.7099 H       1  UNL1        0.0255
     94 H           1.4340    3.3231   -5.3942 H       1  UNL1        0.0255
     95 H           2.6614    4.6007   -5.5658 H       1  UNL1        0.0255
     96 H           5.5677    2.2265  -11.2012 H       1  UNL1        0.0778
     97 H           6.7620    3.5442  -11.2764 H       1  UNL1        0.0778
     98 H           6.8345    2.3516   -9.9570 H       1  UNL1        0.0778
     99 H           3.9631    5.3770  -10.0357 H       1  UNL1        0.0778
    100 H           5.0529    5.0854  -11.4125 H       1  UNL1        0.0778
    101 H           3.6743    3.9974  -11.1227 H       1  UNL1        0.0778
    102 H           6.8788    2.5367   -6.6705 H       1  UNL1        0.2103
    103 H           6.5025   -2.2959   -4.6263 H       1  UNL1        0.0258
    104 H           6.4434   -3.2868   -6.1038 H       1  UNL1        0.0258
    105 H           7.0857   -1.6280   -6.1697 H       1  UNL1        0.0258
    106 H           5.0372   -2.3018   -7.9694 H       1  UNL1        0.2103
    107 H           4.2632   -4.5336   -3.6334 H       1  UNL1        0.0236
    108 H           4.9555   -5.8027   -4.6718 H       1  UNL1        0.0236
    109 H           5.7942   -4.2429   -4.4934 H       1  UNL1        0.0236
    110 H           2.9088   -6.0655   -3.3949 H       1  UNL1        0.0237
    111 H           1.1706   -6.0803   -3.0119 H       1  UNL1        0.0237
    112 H           1.7825   -7.0011   -4.4069 H       1  UNL1        0.0237
    113 H           0.4414   -2.6955   -5.2767 H       1  UNL1        0.2099
    114 H           0.8719   -3.9271   -0.6318 H       1  UNL1        0.0259
    115 H           1.7373   -5.0980   -1.6557 H       1  UNL1        0.0259
    116 H           2.4556   -3.5033   -1.3252 H       1  UNL1        0.0259
    117 H          -1.0251   -4.0932   -2.2328 H       1  UNL1        0.2104
    118 N           5.3034    3.7806   -9.7807 N.4     1  UNL1        0.2351
    119 H           5.8947    4.3969   -9.2107 H       1  UNL1        0.2031
@<TRIPOS>UNITY_ATOM_ATTR
118 1
charge 1
@<TRIPOS>BOND
     1     1     2    1
     2     1    66    1
     3     1    67    1
     4     1    68    1
     5     2     3    1
     6     2    69    1
     7     2    70    1
     8     3     4    1
     9     3    26    1
    10     3     5    1
    11     5     6    1
    12     5    64    1
    13     5    65    1
    14     6     7    1
    15     6     8    1
    16     6    63    1
    17     8     9    1
    18     8    10    1
    19     8    62    1
    20    10    11    2
    21    10    12    1
    22    12    13    1
    23    12    14    1
    24    12    61    1
    25    14    15    1
    26    14    71    1
    27    14    72    1
    28    15    16    1
    29    15    59    1
    30    15    60    1
    31    16    17    1
    32    16    18    1
    33    16    44    1
    34    18    19    1
    35    18    20    1
    36    18    43    1
    37    20    21    1
    38    20    22    1
    39    20    28    1
    40    22    23    1
    41    22    24    1
    42    22    27    1
    43    24    25    2
    44    24    26    1
    45    27    73    1
    46    27    74    1
    47    27    75    1
    48    28    29    1
    49    29    30    1
    50    29    37    1
    51    29    31    1
    52    31    32    1
    53    31    76    1
    54    31    77    1
    55    32    33    1
    56    32    40    1
    57    32    41    1
    58    33    34    1
    59    33    35    1
    60    33    39    1
    61    35    36    1
    62    35    37    1
    63    35    38    1
    64    38    78    1
    65    38    79    1
    66    38    80    1
    67    39    81    1
    68    40    82    1
    69    40    83    1
    70    40    84    1
    71    41    42    1
    72    42    85    1
    73    42    86    1
    74    42    87    1
    75    43    88    1
    76    43    89    1
    77    43    90    1
    78    44    45    1
    79    45    46    1
    80    45    54    1
    81    45    47    1
    82    47    48    1
    83    47    49    1
    84    47    58    1
    85    49    50    1
    86    49    51    1
    87    49   118    1
    88    51    52    1
    89    51    91    1
    90    51    92    1
    91    52    53    1
    92    52    54    1
    93    52    55    1
    94    55    93    1
    95    55    94    1
    96    55    95    1
    97    56    96    1
    98    56    97    1
    99    56    98    1
   100    56   118    1
   101    57    99    1
   102    57   100    1
   103    57   101    1
   104    57   118    1
   105    58   102    1
   106    59   103    1
   107    59   104    1
   108    59   105    1
   109    60   106    1
   110    61   107    1
   111    61   108    1
   112    61   109    1
   113    62   110    1
   114    62   111    1
   115    62   112    1
   116    63   113    1
   117    64   114    1
   118    64   115    1
   119    64   116    1
   120    65   117    1
   121   118   119    1
