@<TRIPOS>MOLECULE
ZINC03831062
 28 28 0 0 0
SMALL
GASTEIGER

@<TRIPOS>ATOM
      1 C          -0.0510    0.0322    2.4997 C.3     1  UNL1       -0.0639
      2 C          -0.7448   -0.4972    1.2429 C.3     1  UNL1       -0.0334
      3 C           0.0021   -0.0041    0.0020 C.3     1  UNL1        0.1231
      4 C           1.3718   -0.6559   -0.0146 C.2     1  UNL1        0.2354
      5 O           1.4940   -1.8620   -0.0226 O.2     1  UNL1       -0.2742
      6 N           2.4496    0.1569   -0.0205 N.am    1  UNL1       -0.2388
      7 C           2.3317    1.4896   -0.0126 C.2     1  UNL1        0.3146
      8 O           3.3545    2.1453   -0.0193 O.2     1  UNL1       -0.2518
      9 N           1.1700    2.1529    0.0025 N.am    1  UNL1       -0.2280
     10 C          -0.0185    1.5128    0.0104 C.2     1  UNL1        0.2378
     11 O          -1.0635    2.1273    0.0187 O.2     1  UNL1       -0.2740
     12 C           1.1881    3.6178    0.0096 C.3     1  UNL1        0.0124
     13 C          -0.7639   -0.4838   -1.2325 C.3     1  UNL1       -0.0334
     14 C          -0.0894    0.0591   -2.4940 C.3     1  UNL1       -0.0639
     15 H          -0.0526    1.1220    2.4838 H       1  UNL1        0.0230
     16 H          -0.5831   -0.3191    3.3837 H       1  UNL1        0.0230
     17 H           0.9769   -0.3294    2.5268 H       1  UNL1        0.0230
     18 H          -1.7728   -0.1356    1.2159 H       1  UNL1        0.0277
     19 H          -0.7433   -1.5870    1.2588 H       1  UNL1        0.0277
     20 H           3.3359   -0.2370   -0.0311 H       1  UNL1        0.1591
     21 H           1.2022    3.9759    1.0390 H       1  UNL1        0.0434
     22 H           2.0777    3.9727   -0.5108 H       1  UNL1        0.0434
     23 H           0.2979    3.9947   -0.4940 H       1  UNL1        0.0434
     24 H          -0.7626   -1.5734   -1.2601 H       1  UNL1        0.0277
     25 H          -1.7912   -0.1227   -1.1857 H       1  UNL1        0.0277
     26 H          -0.6351   -0.2827   -3.3735 H       1  UNL1        0.0230
     27 H          -0.0906    1.1487   -2.4664 H       1  UNL1        0.0230
     28 H           0.9380   -0.3020   -2.5408 H       1  UNL1        0.0230
@<TRIPOS>BOND
     1     1     2    1
     2     1    15    1
     3     1    16    1
     4     1    17    1
     5     2     3    1
     6     2    18    1
     7     2    19    1
     8     3    10    1
     9     3     4    1
    10     3    13    1
    11     4     5    2
    12     4     6   am
    13     6     7   am
    14     6    20    1
    15     7     8    2
    16     7     9   am
    17     9    10   am
    18     9    12    1
    19    10    11    2
    20    12    21    1
    21    12    22    1
    22    12    23    1
    23    13    14    1
    24    13    24    1
    25    13    25    1
    26    14    26    1
    27    14    27    1
    28    14    28    1
