@<TRIPOS>MOLECULE
ZINC01530611
 43 45 0 0 0
SMALL
GASTEIGER

@<TRIPOS>ATOM
      1 C          -0.0863    1.1305   -4.9109 C.3     1  UNL1       -0.0449
      2 C          -0.0366    1.0992   -2.4903 C.3     1  UNL1       -0.0325
      3 C          -0.7527    1.5927   -1.2315 C.3     1  UNL1        0.0035
      4 C          -0.0127    1.0858    0.0080 C.3     1  UNL1        0.0221
      5 N          -0.6984    1.5583    1.2133 N.pl3   1  UNL1       -0.2994
      6 C          -0.3555    2.7756    1.8111 C.ar    1  UNL1        0.0372
      7 C          -0.4361    3.9248    1.0297 C.ar    1  UNL1       -0.0401
      8 C          -0.1655    5.1623    1.5739 C.ar    1  UNL1       -0.0600
      9 C           0.1860    5.2494    2.9089 C.ar    1  UNL1       -0.0614
     10 C           0.2827    4.1199    3.6678 C.ar    1  UNL1       -0.0568
     11 C           0.0369    2.8530    3.1335 C.ar    1  UNL1       -0.0257
     12 C           0.2555    1.7080    4.0974 C.3     1  UNL1       -0.0219
     13 C           0.0185    0.3457    3.4685 C.3     1  UNL1       -0.0219
     14 C          -1.4052    0.1934    2.9971 C.ar    1  UNL1       -0.0257
     15 C          -1.7149    0.8051    1.8101 C.ar    1  UNL1        0.0372
     16 C          -2.9771    0.6746    1.2559 C.ar    1  UNL1       -0.0401
     17 C          -3.9287   -0.0659    1.9384 C.ar    1  UNL1       -0.0600
     18 C          -3.6192   -0.6590    3.1488 C.ar    1  UNL1       -0.0614
     19 C          -2.3474   -0.5311    3.6893 C.ar    1  UNL1       -0.0568
     20 H           0.9359    1.5080   -4.9354 H       1  UNL1        0.0777
     21 H          -0.0719    0.0409   -4.9337 H       1  UNL1        0.0777
     22 H          -0.6327    1.5048   -5.7766 H       1  UNL1        0.0777
     23 H           0.9860    1.4765   -2.4981 H       1  UNL1        0.0814
     24 H          -0.0218    0.0093   -2.4963 H       1  UNL1        0.0814
     25 H          -1.7753    1.2154   -1.2238 H       1  UNL1        0.0332
     26 H          -0.7675    2.6825   -1.2255 H       1  UNL1        0.0332
     27 H           0.0021   -0.0041    0.0020 H       1  UNL1        0.0470
     28 H           1.0099    1.4631    0.0003 H       1  UNL1        0.0470
     29 H          -0.7125    3.8463   -0.0114 H       1  UNL1        0.0636
     30 H          -0.2275    6.0526    0.9656 H       1  UNL1        0.0618
     31 H           0.3806    6.2150    3.3519 H       1  UNL1        0.0618
     32 H           0.5637    4.2095    4.7068 H       1  UNL1        0.0621
     33 H          -0.4228    1.8268    4.9423 H       1  UNL1        0.0317
     34 H           1.2813    1.7513    4.4635 H       1  UNL1        0.0317
     35 H           0.2346   -0.4287    4.2046 H       1  UNL1        0.0317
     36 H           0.6898    0.2256    2.6182 H       1  UNL1        0.0317
     37 H          -3.2152    1.1410    0.3113 H       1  UNL1        0.0636
     38 H          -4.9187   -0.1810    1.5222 H       1  UNL1        0.0618
     39 H          -4.3722   -1.2250    3.6771 H       1  UNL1        0.0618
     40 H          -2.1023   -0.9912    4.6352 H       1  UNL1        0.0621
     41 N          -0.7558    1.5920   -3.6801 N.4     1  UNL1        0.2248
     42 H          -1.7190    1.2366   -3.6650 H       1  UNL1        0.2011
     43 H          -0.7695    2.6186   -3.6666 H       1  UNL1        0.2011
@<TRIPOS>UNITY_ATOM_ATTR
41 1
charge 1
@<TRIPOS>BOND
     1     1    20    1
     2     1    21    1
     3     1    22    1
     4     1    41    1
     5     2     3    1
     6     2    23    1
     7     2    24    1
     8     2    41    1
     9     3     4    1
    10     3    25    1
    11     3    26    1
    12     4     5    1
    13     4    27    1
    14     4    28    1
    15     5    15    1
    16     5     6    1
    17     6    11   ar
    18     6     7   ar
    19     7     8   ar
    20     7    29    1
    21     8     9   ar
    22     8    30    1
    23     9    10   ar
    24     9    31    1
    25    10    11   ar
    26    10    32    1
    27    11    12    1
    28    12    13    1
    29    12    33    1
    30    12    34    1
    31    13    14    1
    32    13    35    1
    33    13    36    1
    34    14    19   ar
    35    14    15   ar
    36    15    16   ar
    37    16    17   ar
    38    16    37    1
    39    17    18   ar
    40    17    38    1
    41    18    19   ar
    42    18    39    1
    43    19    40    1
    44    41    42    1
    45    41    43    1
