@<TRIPOS>MOLECULE
ZINC01607283
 43 45 0 0 0
SMALL
GASTEIGER

@<TRIPOS>ATOM
      1 C          -0.0187    1.5258    0.0104 C.3     1  UNL1       -0.0486
      2 C           0.0021   -0.0041    0.0020 C.3     1  UNL1        0.0366
      3 CA          0.6152   -0.5606   -1.3146 C.3     1  UNL1        0.0807
      4 HA          0.3511    0.1014   -2.1393 H       1  UNL1        0.0576
      5 N           0.1178   -1.9093   -1.6040 N.am    1  UNL1       -0.2761
      6 C          -1.2277   -2.2256   -1.0925 C.3     1  UNL1        0.1003
      7 H          -1.3093   -3.1467   -0.5154 H       1  UNL1        0.0640
      8 S          -1.7002   -0.7065   -0.1685 S.3     1  UNL1       -0.1275
      9 CA         -1.7772   -2.2859   -2.5118 C.3     1  UNL1        0.1278
     10 HA         -2.3844   -1.4268   -2.7970 H       1  UNL1        0.0622
     11 C          -0.3184   -2.1606   -2.8612 C.2     1  UNL1        0.2401
     12 O           0.2704   -2.2536   -3.9174 O.2     1  UNL1       -0.2734
     13 N          -2.3787   -3.5716   -2.8745 N.am    1  UNL1       -0.2968
     14 C          -3.3150   -3.6284   -3.8423 C.2     1  UNL1        0.2665
     15 O          -3.6595   -2.6153   -4.4130 O.2     1  UNL1       -0.2692
     16 CA         -3.9337   -4.9510   -4.2153 C.3     1  UNL1        0.0789
     17 HA         -3.1653   -5.7241   -4.2168 H       1  UNL1        0.1002
     18 C          -5.0018   -5.3063   -3.2134 C.ar    1  UNL1        0.0091
     19 C          -6.2542   -4.7280   -3.3038 C.ar    1  UNL1       -0.0528
     20 C          -7.2353   -5.0572   -2.3874 C.ar    1  UNL1       -0.0613
     21 C          -6.9612   -5.9575   -1.3748 C.ar    1  UNL1       -0.0617
     22 C          -5.7074   -6.5321   -1.2815 C.ar    1  UNL1       -0.0613
     23 C          -4.7276   -6.2061   -2.2005 C.ar    1  UNL1       -0.0528
     24 C           2.1156   -0.6040   -1.1807 C.2     1  UNL1        0.0635
     25 O           2.6689   -1.6458   -0.9193 O.co2   1  UNL1       -0.5478
     26 C           0.7187   -0.5584    1.2349 C.3     1  UNL1       -0.0486
     27 H           1.0039    1.9031    0.0027 H       1  UNL1        0.0244
     28 H          -0.5459    1.8868   -0.8726 H       1  UNL1        0.0244
     29 H          -0.5289    1.8773    0.9072 H       1  UNL1        0.0244
     30 H          -2.1031   -4.3819   -2.4180 H       1  UNL1        0.1497
     31 H          -6.4671   -4.0216   -4.0925 H       1  UNL1        0.0622
     32 H          -8.2149   -4.6085   -2.4604 H       1  UNL1        0.0618
     33 H          -7.7266   -6.2121   -0.6567 H       1  UNL1        0.0618
     34 H          -5.4932   -7.2354   -0.4904 H       1  UNL1        0.0618
     35 H          -3.7479   -6.6548   -2.1275 H       1  UNL1        0.0622
     36 H1         -4.8961   -5.7434   -5.8536 H       1  UNL1        0.2005
     37 H2         -5.2471   -4.1413   -5.5783 H       1  UNL1        0.2005
     38 H           0.2110   -0.2139    2.1358 H       1  UNL1        0.0244
     39 H           0.7047   -1.6479    1.2040 H       1  UNL1        0.0244
     40 H           1.7509   -0.2084    1.2432 H       1  UNL1        0.0244
     41 N          -4.5108   -4.8451   -5.5670 N.4     1  UNL1        0.2307
     42 H3         -3.7745   -4.5703   -6.2278 H       1  UNL1        0.2005
     43 OXT         2.8373    0.5147   -1.3520 O.co2   1  UNL1       -0.5478
@<TRIPOS>UNITY_ATOM_ATTR
41 1
charge 1
43 1
charge -1
@<TRIPOS>BOND
     1     1     2    1
     2     1    27    1
     3     1    28    1
     4     1    29    1
     5     2     8    1
     6     2     3    1
     7     2    26    1
     8     3     4    1
     9     3     5    1
    10     3    24    1
    11     5    11   am
    12     5     6    1
    13     6     7    1
    14     6     8    1
    15     6     9    1
    16     9    10    1
    17     9    11    1
    18     9    13    1
    19    11    12    2
    20    13    14   am
    21    13    30    1
    22    14    15    2
    23    14    16    1
    24    16    17    1
    25    16    18    1
    26    16    41    1
    27    18    23   ar
    28    18    19   ar
    29    19    20   ar
    30    19    31    1
    31    20    21   ar
    32    20    32    1
    33    21    22   ar
    34    21    33    1
    35    22    23   ar
    36    22    34    1
    37    23    35    1
    38    24    25   ar
    39    24    43   ar
    40    26    38    1
    41    26    39    1
    42    26    40    1
    43    36    41    1
    44    37    41    1
    45    41    42    1
