@<TRIPOS>MOLECULE
ZINC15217619
 60 61 0 0 0
SMALL
GASTEIGER

@<TRIPOS>ATOM
      1 C           2.6689   -1.8104    4.7711 C.3     1  UNL1       -0.0193
      2 C           1.3090   -2.4766    4.5528 C.3     1  UNL1       -0.0004
      3 H           1.4422   -3.3963    3.9831 H       1  UNL1        0.0873
      4 C           0.3935   -1.5256    3.7792 C.3     1  UNL1        0.1041
      5 H           0.7984   -1.3636    2.7803 H       1  UNL1        0.0654
      6 C          -1.0049   -2.1390    3.6702 C.3     1  UNL1       -0.0160
      7 C          -1.9305   -1.1554    2.9476 C.3     1  UNL1       -0.0025
      8 C          -1.9368    0.1747    3.7072 C.3     1  UNL1        0.0279
      9 H          -2.3446    0.0217    4.7064 H       1  UNL1        0.0900
     10 C          -0.5024    0.6988    3.8148 C.3     1  UNL1        0.2034
     11 H          -0.4955    1.6238    4.3914 H       1  UNL1        0.0970
     12 O           0.3119   -0.2766    4.4687 O.3     1  UNL1       -0.3375
     13 O           0.0128    0.9494    2.5057 O.3     1  UNL1       -0.3346
     14 C           1.3102    1.5483    2.4965 C.3     1  UNL1        0.1376
     15 H           1.8639    1.2293    3.3795 H       1  UNL1        0.0683
     16 C           2.0636    1.1140    1.2377 C.3     1  UNL1        0.0343
     17 H           3.0532    1.5708    1.2307 H       1  UNL1        0.0903
     18 C           1.2864    1.5618   -0.0018 C.3     1  UNL1        0.1313
     19 H           1.8231    1.2523   -0.8987 H       1  UNL1        0.0679
     20 C           1.1449    3.0852    0.0077 C.3     1  UNL1        0.1341
     21 H           0.5912    3.4042   -0.8753 H       1  UNL1        0.0682
     22 C           0.3915    3.5195    1.2665 C.3     1  UNL1        0.0357
     23 H          -0.5981    3.0627    1.2735 H       1  UNL1        0.0904
     24 C           1.1687    3.0718    2.5060 C.3     1  UNL1        0.1315
     25 H           0.6320    3.3812    3.4028 H       1  UNL1        0.0679
     26 O           2.4661    3.6707    2.4969 O.3     1  UNL1       -0.3833
     27 C          -0.9040    5.3982    2.0757 C.3     1  UNL1       -0.0444
     28 O           2.4423    3.6841   -0.0015 O.3     1  UNL1       -0.3713
     29 C           2.9575    3.9347   -1.3106 C.3     1  UNL1        0.0372
     30 O          -0.0110    0.9628    0.0073 O.3     1  UNL1       -0.3833
     31 H           3.3211   -2.4879    5.3222 H       1  UNL1        0.0285
     32 H           3.1188   -1.5780    3.8058 H       1  UNL1        0.0285
     33 H           2.5357   -0.8907    5.3408 H       1  UNL1        0.0285
     34 H          -0.9512   -3.0702    3.1061 H       1  UNL1        0.0294
     35 H          -1.3934   -2.3398    4.6686 H       1  UNL1        0.0294
     36 H          -1.5692   -0.9937    1.9320 H       1  UNL1        0.0322
     37 H          -2.9410   -1.5628    2.9146 H       1  UNL1        0.0322
     38 H           3.0156    3.4304    3.2554 H       1  UNL1        0.2102
     39 H          -1.8109    4.9657    1.6531 H       1  UNL1        0.0777
     40 H          -0.7805    5.0523    3.1019 H       1  UNL1        0.0777
     41 H          -0.9812    6.4855    2.0656 H       1  UNL1        0.0777
     42 H           3.0333    2.9948   -1.8573 H       1  UNL1        0.0524
     43 H           2.2874    4.6109   -1.8415 H       1  UNL1        0.0524
     44 H           3.9449    4.3897   -1.2315 H       1  UNL1        0.0524
     45 H           0.0021   -0.0041    0.0020 H       1  UNL1        0.2102
     46 H           2.6940   -0.6608    0.4063 H       1  UNL1        0.1999
     47 H           2.6527   -0.6750    2.0688 H       1  UNL1        0.1999
     48 H          -3.7146    0.8261    2.8988 H       1  UNL1        0.1999
     49 H          -2.7265    2.0552    3.4267 H       1  UNL1        0.1999
     50 H          -0.2240   -3.1718    5.7381 H       1  UNL1        0.1998
     51 H           1.2887   -3.4170    6.3841 H       1  UNL1        0.1998
     52 N           0.2623    4.9889    1.2706 N.4     1  UNL1        0.2308
     53 H           0.1417    5.3210    0.3065 H       1  UNL1        0.2015
     54 H           1.1124    5.4026    1.6713 H       1  UNL1        0.2015
     55 N           2.1750   -0.3553    1.2279 N.4     1  UNL1        0.2246
     56 H           1.2338   -0.7650    1.2010 H       1  UNL1        0.1999
     57 N          -2.7508    1.1499    2.9603 N.4     1  UNL1        0.2243
     58 H          -2.3703    1.2513    2.0120 H       1  UNL1        0.1999
     59 N           0.7021   -2.7667    5.8639 N.4     1  UNL1        0.2224
     60 H           0.6161   -1.8932    6.3967 H       1  UNL1        0.1998
@<TRIPOS>UNITY_ATOM_ATTR
52 1
charge 1
55 1
charge 1
57 1
charge 1
59 1
charge 1
@<TRIPOS>BOND
     1     1     2    1
     2     1    31    1
     3     1    32    1
     4     1    33    1
     5     2     3    1
     6     2     4    1
     7     2    59    1
     8     4     5    1
     9     4    12    1
    10     4     6    1
    11     6     7    1
    12     6    34    1
    13     6    35    1
    14     7     8    1
    15     7    36    1
    16     7    37    1
    17     8     9    1
    18     8    10    1
    19     8    57    1
    20    10    11    1
    21    10    12    1
    22    10    13    1
    23    13    14    1
    24    14    15    1
    25    14    24    1
    26    14    16    1
    27    16    17    1
    28    16    18    1
    29    16    55    1
    30    18    19    1
    31    18    20    1
    32    18    30    1
    33    20    21    1
    34    20    22    1
    35    20    28    1
    36    22    23    1
    37    22    24    1
    38    22    52    1
    39    24    25    1
    40    24    26    1
    41    26    38    1
    42    27    39    1
    43    27    40    1
    44    27    41    1
    45    27    52    1
    46    28    29    1
    47    29    42    1
    48    29    43    1
    49    29    44    1
    50    30    45    1
    51    46    55    1
    52    47    55    1
    53    48    57    1
    54    49    57    1
    55    50    59    1
    56    51    59    1
    57    52    53    1
    58    52    54    1
    59    55    56    1
    60    57    58    1
    61    59    60    1
