@<TRIPOS>MOLECULE
ZINC03830777
 60 63 0 0 0
SMALL
GASTEIGER

@<TRIPOS>ATOM
      1 C           4.2616   -3.9123  -13.8016 C.3     1  UNL1       -0.0552
      2 C           2.7751   -4.0039  -13.4514 C.3     1  UNL1        0.0425
      3 C           2.5402   -3.3928  -12.0940 C.2     1  UNL1        0.3121
      4 O           3.4668   -2.9314  -11.4707 O.2     1  UNL1       -0.2504
      5 O           1.3014   -3.3612  -11.5772 O.3     1  UNL1       -0.4258
      6 C           1.1381   -2.6904  -10.4064 C.ar    1  UNL1        0.1319
      7 C           0.8487   -3.3845   -9.2403 C.ar    1  UNL1       -0.0189
      8 C           0.6885   -2.6943   -8.0579 C.ar    1  UNL1       -0.0546
      9 C           0.8131   -1.3117   -8.0227 C.ar    1  UNL1       -0.0406
     10 C           1.0929   -0.6175   -9.1816 C.ar    1  UNL1       -0.0404
     11 C           1.2594   -1.3121  -10.3724 C.ar    1  UNL1       -0.0158
     12 C           1.2162    0.8828   -9.2251 C.3     1  UNL1       -0.0270
     13 C           1.3777    1.4669   -7.8221 C.3     1  UNL1       -0.0454
     14 C           0.3193    0.8687   -6.9275 C.3     1  UNL1       -0.0305
     15 H          -0.6524    0.9560   -7.4135 H       1  UNL1        0.0310
     16 C           0.6398   -0.6160   -6.7042 C.3     1  UNL1       -0.0125
     17 H           1.5944   -0.6510   -6.1791 H       1  UNL1        0.0352
     18 C          -0.4002   -1.3030   -5.8310 C.3     1  UNL1       -0.0453
     19 C          -0.5524   -0.5667   -4.4862 C.3     1  UNL1       -0.0434
     20 C          -0.9169    0.8717   -4.7885 C.3     1  UNL1        0.0081
     21 C           0.2677    1.5178   -5.5598 C.3     1  UNL1       -0.0288
     22 H           1.2049    1.3576   -5.0268 H       1  UNL1        0.0310
     23 C          -0.1187    3.0004   -5.5313 C.3     1  UNL1       -0.0460
     24 C          -0.6437    3.1950   -4.0825 C.3     1  UNL1       -0.0149
     25 C          -1.1050    1.7991   -3.5935 C.3     1  UNL1        0.1087
     26 H          -2.1540    1.8298   -3.2988 H       1  UNL1        0.0739
     27 O          -0.2830    1.3588   -2.4805 O.3     1  UNL1       -0.4608
     28 C          -0.7123    1.6669   -1.2466 C.2     1  UNL1        0.3071
     29 O          -1.7408    2.2841   -1.1013 O.2     1  UNL1       -0.2509
     30 C           0.0886    1.2431   -0.0425 C.3     1  UNL1        0.0421
     31 C          -0.6156    1.7162    1.2308 C.3     1  UNL1       -0.0552
     32 C          -2.1729    0.8985   -5.6619 C.3     1  UNL1       -0.0559
     33 H           4.8447   -4.4511  -13.0548 H       1  UNL1        0.0235
     34 H           4.4315   -4.3543  -14.7834 H       1  UNL1        0.0235
     35 H           4.5676   -2.8662  -13.8162 H       1  UNL1        0.0235
     36 H           2.4690   -5.0500  -13.4368 H       1  UNL1        0.0375
     37 H           2.1919   -3.4651  -14.1982 H       1  UNL1        0.0375
     38 H           0.7499   -4.4598   -9.2589 H       1  UNL1        0.0654
     39 H           0.4636   -3.2341   -7.1499 H       1  UNL1        0.0622
     40 H           1.4852   -0.7721  -11.2800 H       1  UNL1        0.0657
     41 H           2.0847    1.1524   -9.8261 H       1  UNL1        0.0313
     42 H           0.3206    1.3015   -9.6842 H       1  UNL1        0.0313
     43 H           2.3633    1.2155   -7.4305 H       1  UNL1        0.0271
     44 H           1.2622    2.5501   -7.8593 H       1  UNL1        0.0271
     45 H          -0.0902   -2.3312   -5.6446 H       1  UNL1        0.0271
     46 H          -1.3589   -1.3053   -6.3498 H       1  UNL1        0.0271
     47 H           0.3885   -0.6020   -3.9370 H       1  UNL1        0.0272
     48 H          -1.3427   -1.0323   -3.8973 H       1  UNL1        0.0272
     49 H          -0.9046    3.2081   -6.2575 H       1  UNL1        0.0269
     50 H           0.7525    3.6295   -5.7136 H       1  UNL1        0.0269
     51 H          -1.4841    3.8891   -4.0792 H       1  UNL1        0.0301
     52 H           0.1548    3.5705   -3.4425 H       1  UNL1        0.0301
     53 H           0.1749    0.1566   -0.0276 H       1  UNL1        0.0375
     54 H           1.0833    1.6859   -0.0935 H       1  UNL1        0.0375
     55 H          -1.6103    1.2734    1.2817 H       1  UNL1        0.0235
     56 H          -0.0363    1.4096    2.1017 H       1  UNL1        0.0235
     57 H          -0.7019    2.8027    1.2159 H       1  UNL1        0.0235
     58 H          -2.3622    1.9190   -5.9948 H       1  UNL1        0.0236
     59 H          -2.0262    0.2547   -6.5291 H       1  UNL1        0.0236
     60 H          -3.0250    0.5409   -5.0839 H       1  UNL1        0.0236
@<TRIPOS>BOND
     1     1     2    1
     2     1    33    1
     3     1    34    1
     4     1    35    1
     5     2     3    1
     6     2    36    1
     7     2    37    1
     8     3     4    2
     9     3     5    1
    10     5     6    1
    11     6    11   ar
    12     6     7   ar
    13     7     8   ar
    14     7    38    1
    15     8     9   ar
    16     8    39    1
    17     9    16    1
    18     9    10   ar
    19    10    11   ar
    20    10    12    1
    21    11    40    1
    22    12    13    1
    23    12    41    1
    24    12    42    1
    25    13    14    1
    26    13    43    1
    27    13    44    1
    28    14    15    1
    29    14    21    1
    30    14    16    1
    31    16    17    1
    32    16    18    1
    33    18    19    1
    34    18    45    1
    35    18    46    1
    36    19    20    1
    37    19    47    1
    38    19    48    1
    39    20    25    1
    40    20    21    1
    41    20    32    1
    42    21    22    1
    43    21    23    1
    44    23    24    1
    45    23    49    1
    46    23    50    1
    47    24    25    1
    48    24    51    1
    49    24    52    1
    50    25    26    1
    51    25    27    1
    52    27    28    1
    53    28    29    2
    54    28    30    1
    55    30    31    1
    56    30    53    1
    57    30    54    1
    58    31    55    1
    59    31    56    1
    60    31    57    1
    61    32    58    1
    62    32    59    1
    63    32    60    1
