@<TRIPOS>MOLECULE
ZINC03812913
 65 65 0 0 0
SMALL
GASTEIGER

@<TRIPOS>ATOM
      1 C          -5.6005    3.7811    7.4192 C.3     1  UNL1       -0.0653
      2 C          -5.3811    2.3831    6.8377 C.3     1  UNL1       -0.0558
      3 C          -4.8368    2.5031    5.4128 C.3     1  UNL1       -0.0507
      4 C          -4.6174    1.1050    4.8313 C.3     1  UNL1       -0.0240
      5 C          -4.0732    1.2250    3.4064 C.3     1  UNL1        0.0667
      6 C          -2.7437    1.9819    3.4303 C.3     1  UNL1       -0.0358
      7 C          -3.8538   -0.1731    2.8248 C.3     1  UNL1       -0.0060
      8 C          -3.2038   -0.0573    1.4701 C.2     1  UNL1       -0.0849
      9 C          -2.0831   -0.6898    1.2252 C.2     1  UNL1       -0.0816
     10 C          -1.4331   -0.5741   -0.1295 C.3     1  UNL1        0.0130
     11 H          -2.0337    0.0497   -0.7915 H       1  UNL1        0.0375
     12 C           0.0021   -0.0041    0.0020 C.3     1  UNL1        0.0688
     13 H           0.4947   -0.3883    0.8952 H       1  UNL1        0.0603
     14 C           0.6891   -0.5386   -1.2791 C.3     1  UNL1        0.0327
     15 C           0.1185   -1.9340   -1.4604 C.2     1  UNL1        0.1395
     16 O           0.6345   -2.8456   -2.0613 O.2     1  UNL1       -0.2970
     17 C          -1.2177   -1.9707   -0.7485 C.3     1  UNL1        0.0262
     18 H          -1.2196   -2.6602   -0.0242 H       1  UNL1        0.0384
     19 C          -2.3344   -2.2785   -1.7481 C.3     1  UNL1       -0.0429
     20 C          -2.1633   -3.7022   -2.2815 C.3     1  UNL1       -0.0524
     21 C          -3.2800   -4.0100   -3.2811 C.3     1  UNL1       -0.0530
     22 C          -3.1089   -5.4337   -3.8146 C.3     1  UNL1       -0.0526
     23 C          -4.2256   -5.7415   -4.8141 C.3     1  UNL1       -0.0430
     24 C          -4.0545   -7.1653   -5.3476 C.3     1  UNL1        0.0449
     25 C          -5.1544   -7.4684   -6.3321 C.2     1  UNL1        0.3068
     26 O          -5.9895   -6.6316   -6.5815 O.2     1  UNL1       -0.2509
     27 O          -5.2064   -8.6681   -6.9319 O.3     1  UNL1       -0.4679
     28 C          -6.2934   -8.8902   -7.8687 C.3     1  UNL1        0.0817
     29 O          -0.0173    1.4248    0.0099 O.3     1  UNL1       -0.3908
     30 O          -5.0115    1.9359    2.5964 O.3     1  UNL1       -0.3885
     31 H          -4.6534    4.3203    7.4363 H       1  UNL1        0.0230
     32 H          -6.3162    4.3234    6.8014 H       1  UNL1        0.0230
     33 H          -5.9882    3.6957    8.4344 H       1  UNL1        0.0230
     34 H          -6.3282    1.8439    6.8207 H       1  UNL1        0.0263
     35 H          -4.6653    1.8408    7.4555 H       1  UNL1        0.0263
     36 H          -3.8897    3.0423    5.4298 H       1  UNL1        0.0266
     37 H          -5.5526    3.0454    4.7950 H       1  UNL1        0.0266
     38 H          -5.5646    0.5658    4.8142 H       1  UNL1        0.0293
     39 H          -3.9017    0.5627    5.4491 H       1  UNL1        0.0293
     40 H          -2.3560    2.0673    2.4152 H       1  UNL1        0.0257
     41 H          -2.9000    2.9779    3.8446 H       1  UNL1        0.0257
     42 H          -2.0280    1.4396    4.0481 H       1  UNL1        0.0257
     43 H          -4.8136   -0.6799    2.7252 H       1  UNL1        0.0335
     44 H          -3.2077   -0.7460    3.4900 H       1  UNL1        0.0335
     45 H          -3.6619    0.5472    0.7013 H       1  UNL1        0.0570
     46 H          -1.6250   -1.2943    1.9940 H       1  UNL1        0.0573
     47 H           0.4751    0.0637   -2.0481 H       1  UNL1        0.0367
     48 H           1.7695   -0.5819   -1.1419 H       1  UNL1        0.0367
     49 H          -3.3008   -2.1902   -1.2518 H       1  UNL1        0.0272
     50 H          -2.2855   -1.5718   -2.5765 H       1  UNL1        0.0272
     51 H          -1.1969   -3.7905   -2.7779 H       1  UNL1        0.0265
     52 H          -2.2122   -4.4089   -1.4531 H       1  UNL1        0.0265
     53 H          -4.2464   -3.9217   -2.7848 H       1  UNL1        0.0265
     54 H          -3.2311   -3.3033   -4.1095 H       1  UNL1        0.0265
     55 H          -2.1425   -5.5221   -4.3109 H       1  UNL1        0.0265
     56 H          -3.1578   -6.1405   -2.9861 H       1  UNL1        0.0265
     57 H          -5.1920   -5.6532   -4.3178 H       1  UNL1        0.0270
     58 H          -4.1767   -5.0348   -5.6425 H       1  UNL1        0.0270
     59 H          -3.0881   -7.2536   -5.8439 H       1  UNL1        0.0377
     60 H          -4.1034   -7.8720   -4.5192 H       1  UNL1        0.0377
     61 H          -7.2467   -8.7796   -7.3519 H       1  UNL1        0.0661
     62 H          -6.2314   -8.1612   -8.6767 H       1  UNL1        0.0661
     63 H          -6.2180   -9.8965   -8.2807 H       1  UNL1        0.0661
     64 H           0.8606    1.8301    0.0037 H       1  UNL1        0.2098
     65 H          -5.8789    1.5127    2.5358 H       1  UNL1        0.2102
@<TRIPOS>BOND
     1     1     2    1
     2     1    31    1
     3     1    32    1
     4     1    33    1
     5     2     3    1
     6     2    34    1
     7     2    35    1
     8     3     4    1
     9     3    36    1
    10     3    37    1
    11     4     5    1
    12     4    38    1
    13     4    39    1
    14     5     6    1
    15     5     7    1
    16     5    30    1
    17     6    40    1
    18     6    41    1
    19     6    42    1
    20     7     8    1
    21     7    43    1
    22     7    44    1
    23     8     9    2
    24     8    45    1
    25     9    10    1
    26     9    46    1
    27    10    11    1
    28    10    17    1
    29    10    12    1
    30    12    13    1
    31    12    14    1
    32    12    29    1
    33    14    15    1
    34    14    47    1
    35    14    48    1
    36    15    16    2
    37    15    17    1
    38    17    18    1
    39    17    19    1
    40    19    20    1
    41    19    49    1
    42    19    50    1
    43    20    21    1
    44    20    51    1
    45    20    52    1
    46    21    22    1
    47    21    53    1
    48    21    54    1
    49    22    23    1
    50    22    55    1
    51    22    56    1
    52    23    24    1
    53    23    57    1
    54    23    58    1
    55    24    25    1
    56    24    59    1
    57    24    60    1
    58    25    26    2
    59    25    27    1
    60    27    28    1
    61    28    61    1
    62    28    62    1
    63    28    63    1
    64    29    64    1
    65    30    65    1
