@<TRIPOS>MOLECULE
ZINC03831169
 50 53 0 0 0
SMALL
GASTEIGER

@<TRIPOS>ATOM
      1 C          -0.0127    1.0858    0.0080 C.3     1  UNL1       -0.0307
      2 C          -0.7288    1.5792    1.2668 C.3     1  UNL1        0.0868
      3 O          -0.0377    1.1059    2.4245 O.3     1  UNL1       -0.4915
      4 C          -0.5462    1.4566    3.6310 C.ar    1  UNL1        0.1332
      5 C          -1.6924    2.2511    3.6966 C.ar    1  UNL1       -0.0186
      6 C          -2.2382    2.6220    4.8831 C.ar    1  UNL1       -0.0505
      7 C          -1.6558    2.2229    6.1004 C.ar    1  UNL1       -0.0169
      8 C          -2.2102    2.6058    7.3332 C.ar    1  UNL1       -0.0540
      9 C          -1.6199    2.2018    8.4922 C.ar    1  UNL1       -0.0612
     10 C          -0.4728    1.4127    8.4753 C.ar    1  UNL1       -0.0611
     11 C           0.0918    1.0240    7.2966 C.ar    1  UNL1       -0.0532
     12 C          -0.4894    1.4211    6.0868 C.ar    1  UNL1       -0.0022
     13 C           0.0824    1.0262    4.8002 C.ar    1  UNL1        0.0859
     14 C           1.2932    0.1944    4.7398 C.2     1  UNL1        0.2489
     15 O           2.3907    0.7186    4.7137 O.2     1  UNL1       -0.2700
     16 N           1.1873   -1.1490    4.7132 N.am    1  UNL1       -0.2976
     17 CA          2.3938   -1.9778    4.6530 C.3     1  UNL1        0.1279
     18 HA          3.2516   -1.4500    4.2363 H       1  UNL1        0.0622
     19 C           2.1620   -3.3592    4.0376 C.3     1  UNL1        0.1003
     20 H           2.8883   -3.6767    3.2894 H       1  UNL1        0.0640
     21 N           2.3003   -3.9088    5.4079 N.am    1  UNL1       -0.2761
     22 C           2.6944   -2.7117    5.9432 C.2     1  UNL1        0.2401
     23 O           3.1190   -2.3719    7.0272 O.2     1  UNL1       -0.2734
     24 CA          1.0879   -4.4990    5.9829 C.3     1  UNL1        0.0807
     25 HA          0.5710   -3.7435    6.5746 H       1  UNL1        0.0576
     26 C           0.1259   -5.0264    4.8827 C.3     1  UNL1        0.0366
     27 S           0.4077   -3.7092    3.6160 S.3     1  UNL1       -0.1275
     28 C          -1.3260   -5.0414    5.3651 C.3     1  UNL1       -0.0486
     29 C           0.5579   -6.4016    4.3698 C.3     1  UNL1       -0.0486
     30 C           1.4777   -5.6424    6.8839 C.2     1  UNL1        0.0635
     31 O           2.5436   -6.1918    6.7360 O.co2   1  UNL1       -0.5478
     32 H           0.0021   -0.0041    0.0020 H       1  UNL1        0.0262
     33 H           1.0099    1.4631    0.0003 H       1  UNL1        0.0262
     34 H          -0.5399    1.4469   -0.8751 H       1  UNL1        0.0262
     35 H          -0.7436    2.6691    1.2728 H       1  UNL1        0.0694
     36 H          -1.7514    1.2020    1.2746 H       1  UNL1        0.0694
     37 H          -2.1598    2.5760    2.7788 H       1  UNL1        0.0654
     38 H          -3.1282    3.2337    4.8929 H       1  UNL1        0.0625
     39 H          -3.1001    3.2171    7.3617 H       1  UNL1        0.0624
     40 H          -2.0481    2.4976    9.4385 H       1  UNL1        0.0618
     41 H          -0.0239    1.1051    9.4082 H       1  UNL1        0.0618
     42 H           0.9817    0.4121    7.2965 H       1  UNL1        0.0624
     43 H           0.3122   -1.5670    4.7340 H       1  UNL1        0.1499
     44 H          -1.9860   -5.2551    4.5244 H       1  UNL1        0.0244
     45 H          -1.4476   -5.8111    6.1273 H       1  UNL1        0.0244
     46 H          -1.5787   -4.0688    5.7873 H       1  UNL1        0.0244
     47 H           1.6138   -6.3738    4.1007 H       1  UNL1        0.0244
     48 H           0.4014   -7.1461    5.1504 H       1  UNL1        0.0244
     49 H          -0.0337   -6.6646    3.4930 H       1  UNL1        0.0244
     50 OXT         0.6408   -6.0503    7.8508 O.co2   1  UNL1       -0.5478
@<TRIPOS>UNITY_ATOM_ATTR
50 1
charge -1
@<TRIPOS>BOND
     1     1     2    1
     2     1    32    1
     3     1    33    1
     4     1    34    1
     5     2     3    1
     6     2    35    1
     7     2    36    1
     8     3     4    1
     9     4    13   ar
    10     4     5   ar
    11     5     6   ar
    12     5    37    1
    13     6     7   ar
    14     6    38    1
    15     7    12   ar
    16     7     8   ar
    17     8     9   ar
    18     8    39    1
    19     9    10   ar
    20     9    40    1
    21    10    11   ar
    22    10    41    1
    23    11    12   ar
    24    11    42    1
    25    12    13   ar
    26    13    14    1
    27    14    15    2
    28    14    16   am
    29    16    17    1
    30    16    43    1
    31    17    18    1
    32    17    22    1
    33    17    19    1
    34    19    20    1
    35    19    27    1
    36    19    21    1
    37    21    22   am
    38    21    24    1
    39    22    23    2
    40    24    25    1
    41    24    26    1
    42    24    30    1
    43    26    27    1
    44    26    28    1
    45    26    29    1
    46    28    44    1
    47    28    45    1
    48    28    46    1
    49    29    47    1
    50    29    48    1
    51    29    49    1
    52    30    31   ar
    53    30    50   ar
