@<TRIPOS>MOLECULE
ZINC03830626
 30 31 0 0 0
SMALL
GASTEIGER

@<TRIPOS>ATOM
      1 C5         -1.0776    2.1150   -0.7005 C.ar    1    C1       -0.0056
      2 C6          0.0906    1.4306   -0.7229 C.ar    1    C1        0.0152
      3 N1          1.1481    1.8933    0.0013 N.ar    1    C1       -0.2700
      4 C2          1.0322    3.0180    0.7310 C.ar    1    C1        0.3522
      5 O2          1.9889    3.4173    1.3738 O.2     1    C1       -0.2444
      6 N3         -0.1116    3.6994    0.7671 N.ar    1    C1       -0.1783
      7 C4         -1.1660    3.2901    0.0738 C.ar    1    C1        0.1230
      8 N4         -2.3407    4.0049    0.1147 N.pl3   1    C1       -0.3430
      9 C1*         2.4176    1.1623   -0.0143 C.3     1    C1        0.1680
     10 H1*         3.2421    1.8400   -0.2355 H       1    C1        0.0867
     11 C2*         2.6492    0.4579    1.3409 C.3     1    C1        0.1286
     12 H2*         3.7118    0.4348    1.5827 H       1    C1        0.0665
     13 C3*         2.1105   -0.9729    1.1172 C.3     1    C1        0.1135
     14 H3*         1.2845   -1.1807    1.7973 H       1    C1        0.0647
     15 C4*         1.6172   -0.9636   -0.3467 C.3     1    C1        0.1126
     16 H4*         0.5500   -0.7458   -0.3861 H       1    C1        0.0647
     17 O4*         2.3697    0.0922   -0.9830 O.3     1    C1       -0.3456
     18 C5*         1.9105   -2.3078   -1.0161 C.3     1    C1        0.0730
     19 O5*         1.3445   -2.3201   -2.3281 O.3     1    C1       -0.3924
     20 O3*         3.1548   -1.9333    1.2876 O.3     1    C1       -0.3864
     21 O2*         1.9153    1.1128    2.3775 O.3     1    C1       -0.3847
     22 H5         -1.9283    1.7665   -1.2672 H       1    C1        0.0666
     23 H6          0.1830    0.5276   -1.3081 H       1    C1        0.0812
     24 H41        -2.5792    4.3072   -0.8082 H       1    C1        0.1437
     25 H42        -2.3984    4.8129    0.6482 H       1    C1        0.1437
     26 H5*1        2.9888   -2.4522   -1.0841 H       1    C1        0.0584
     27 H5*2        1.4730   -3.1116   -0.4240 H       1    C1        0.0584
     28 H5*         1.4921   -3.1440   -2.8124 H       1    C1        0.2095
     29 H3*         2.8719   -2.8490    1.1586 H       1    C1        0.2100
     30 H2*         2.0244    0.7115    3.2505 H       1    C1        0.2101
@<TRIPOS>BOND
     1     1     7   ar
     2     1     2   ar
     3     1    22    1
     4     2     3   ar
     5     2    23    1
     6     3     4   ar
     7     3     9    1
     8     4     5    2
     9     4     6   ar
    10     6     7   ar
    11     7     8    1
    12     8    24    1
    13     8    25    1
    14     9    10    1
    15     9    17    1
    16     9    11    1
    17    11    12    1
    18    11    13    1
    19    11    21    1
    20    13    14    1
    21    13    15    1
    22    13    20    1
    23    15    16    1
    24    15    17    1
    25    15    18    1
    26    18    19    1
    27    18    26    1
    28    18    27    1
    29    19    28    1
    30    20    29    1
    31    21    30    1
