@<TRIPOS>MOLECULE
ZINC00608179
 55 57 0 0 0
SMALL
GASTEIGER

@<TRIPOS>ATOM
      1 C          -4.6585   -7.2138   -1.0770 C.3     1  UNL1       -0.0306
      2 C          -3.6115   -6.6263   -2.0255 C.3     1  UNL1        0.0897
      3 O          -2.2823   -6.9578   -1.5444 O.3     1  UNL1       -0.4643
      4 C          -1.2435   -6.5133   -2.2690 C.2     1  UNL1        0.3181
      5 O          -1.4384   -5.8685   -3.2720 O.2     1  UNL1       -0.2498
      6 C           0.1659   -6.8184   -1.8314 C.3     1  UNL1        0.1021
      7 C           1.1549   -6.2014   -2.8243 C.3     1  UNL1        0.0075
      8 C           0.9872   -4.6803   -2.8253 C.3     1  UNL1       -0.0306
      9 C           0.2647   -4.7008   -0.5123 C.3     1  UNL1       -0.0306
     10 C           0.4108   -6.2226   -0.4423 C.3     1  UNL1        0.0075
     11 C           1.2163   -2.6898   -1.4666 C.3     1  UNL1       -0.0278
     12 C           1.2245   -2.1876   -0.0214 C.3     1  UNL1        0.0127
     13 C           1.2080   -0.6807   -0.0131 C.ar    1  UNL1       -0.0422
     14 C           0.0021   -0.0041    0.0020 C.ar    1  UNL1       -0.0567
     15 C          -0.0167    1.3768    0.0096 C.ar    1  UNL1       -0.0408
     16 C           1.1777    2.0861    0.0020 C.ar    1  UNL1        0.0246
     17 C           2.3873    1.4033   -0.0123 C.ar    1  UNL1       -0.0408
     18 C           2.3988    0.0223   -0.0203 C.ar    1  UNL1       -0.0567
     19 N           1.1624    3.4827    0.0097 N.pl3   1  UNL1       -0.3580
     20 C           0.3662   -8.3113   -1.7830 C.ar    1  UNL1       -0.0302
     21 C           1.3310   -8.9053   -2.5750 C.ar    1  UNL1       -0.0575
     22 C           1.5179  -10.2741   -2.5269 C.ar    1  UNL1       -0.0615
     23 C           0.7330  -11.0501   -1.6947 C.ar    1  UNL1       -0.0617
     24 C          -0.2353  -10.4567   -0.9066 C.ar    1  UNL1       -0.0615
     25 C          -0.4187   -9.0873   -0.9507 C.ar    1  UNL1       -0.0575
     26 H          -4.5460   -8.2973   -1.0379 H       1  UNL1        0.0262
     27 H          -4.5190   -6.7978   -0.0792 H       1  UNL1        0.0262
     28 H          -5.6563   -6.9649   -1.4382 H       1  UNL1        0.0262
     29 H          -3.7240   -5.5428   -2.0646 H       1  UNL1        0.0694
     30 H          -3.7510   -7.0423   -3.0233 H       1  UNL1        0.0694
     31 H           0.9576   -6.5899   -3.8235 H       1  UNL1        0.0331
     32 H           2.1732   -6.4551   -2.5298 H       1  UNL1        0.0331
     33 H          -0.0270   -4.4269   -3.1339 H       1  UNL1        0.0815
     34 H           1.6999   -4.2369   -3.5207 H       1  UNL1        0.0815
     35 H           0.4525   -4.2723    0.4722 H       1  UNL1        0.0815
     36 H          -0.7461   -4.4473   -0.8318 H       1  UNL1        0.0815
     37 H          -0.3181   -6.6262    0.2604 H       1  UNL1        0.0331
     38 H           1.4170   -6.4773   -0.1093 H       1  UNL1        0.0331
     39 H           0.3175   -2.3335   -1.9700 H       1  UNL1        0.0818
     40 H           2.0973   -2.3139   -1.9868 H       1  UNL1        0.0818
     41 H           2.1233   -2.5439    0.4820 H       1  UNL1        0.0365
     42 H           0.3435   -2.5634    0.4989 H       1  UNL1        0.0365
     43 H          -0.9261   -0.5561    0.0083 H       1  UNL1        0.0621
     44 H          -0.9588    1.9047    0.0170 H       1  UNL1        0.0636
     45 H           3.3177    1.9517   -0.0179 H       1  UNL1        0.0636
     46 H           3.3389   -0.5092   -0.0317 H       1  UNL1        0.0621
     47 H           0.3171    3.9585    0.0203 H       1  UNL1        0.1423
     48 H           1.9971    3.9769    0.0043 H       1  UNL1        0.1423
     49 H           1.9412   -8.2995   -3.2285 H       1  UNL1        0.0621
     50 H           2.2742  -10.7377   -3.1429 H       1  UNL1        0.0618
     51 H           0.8761  -12.1200   -1.6605 H       1  UNL1        0.0618
     52 H          -0.8488  -11.0630   -0.2567 H       1  UNL1        0.0618
     53 H          -1.1755   -8.6237   -0.3353 H       1  UNL1        0.0621
     54 N           1.2600   -4.1666   -1.4660 N.4     1  UNL1        0.2355
     55 H           2.1963   -4.4724   -1.1761 H       1  UNL1        0.2033
@<TRIPOS>UNITY_ATOM_ATTR
54 1
charge 1
@<TRIPOS>BOND
     1     1     2    1
     2     1    26    1
     3     1    27    1
     4     1    28    1
     5     2     3    1
     6     2    29    1
     7     2    30    1
     8     3     4    1
     9     4     5    2
    10     4     6    1
    11     6    10    1
    12     6     7    1
    13     6    20    1
    14     7     8    1
    15     7    31    1
    16     7    32    1
    17     8    33    1
    18     8    34    1
    19     8    54    1
    20     9    10    1
    21     9    35    1
    22     9    36    1
    23     9    54    1
    24    10    37    1
    25    10    38    1
    26    11    12    1
    27    11    39    1
    28    11    40    1
    29    11    54    1
    30    12    13    1
    31    12    41    1
    32    12    42    1
    33    13    18   ar
    34    13    14   ar
    35    14    15   ar
    36    14    43    1
    37    15    16   ar
    38    15    44    1
    39    16    17   ar
    40    16    19    1
    41    17    18   ar
    42    17    45    1
    43    18    46    1
    44    19    47    1
    45    19    48    1
    46    20    25   ar
    47    20    21   ar
    48    21    22   ar
    49    21    49    1
    50    22    23   ar
    51    22    50    1
    52    23    24   ar
    53    23    51    1
    54    24    25   ar
    55    24    52    1
    56    25    53    1
    57    54    55    1
