@<TRIPOS>MOLECULE
ZINC11592748
 46 49 0 0 0
SMALL
GASTEIGER

@<TRIPOS>ATOM
      1 C          -0.2024    0.4470    3.0401 C.3     1  UNL1       -0.0558
      2 C          -0.1214    1.8884    2.5335 C.3     1  UNL1        0.0111
      3 C           1.3122    2.2827    2.1684 C.3     1  UNL1       -0.0433
      4 C           1.7667    1.5482    0.9104 C.3     1  UNL1       -0.0453
      5 C           0.8747    1.9774   -0.2605 C.3     1  UNL1       -0.0125
      6 H           0.9263    3.0588   -0.3869 H       1  UNL1        0.0352
      7 C           1.3611    1.2985   -1.5164 C.ar    1  UNL1       -0.0406
      8 C           2.4810    1.8285   -2.1444 C.ar    1  UNL1       -0.0546
      9 C           2.9843    1.2477   -3.2890 C.ar    1  UNL1       -0.0199
     10 C           2.3663    0.1235   -3.8180 C.ar    1  UNL1        0.1171
     11 C           1.2487   -0.4021   -3.1931 C.ar    1  UNL1       -0.0167
     12 C           0.7425    0.1860   -2.0414 C.ar    1  UNL1       -0.0405
     13 C          -0.4805   -0.4354   -1.4189 C.3     1  UNL1       -0.0270
     14 C          -0.6538    0.0400    0.0225 C.3     1  UNL1       -0.0454
     15 C          -0.5608    1.5673    0.0412 C.3     1  UNL1       -0.0305
     16 H          -1.1977    1.9545   -0.7541 H       1  UNL1        0.0310
     17 C          -1.0652    2.1314    1.3425 C.3     1  UNL1       -0.0286
     18 H          -2.0398    1.6973    1.5661 H       1  UNL1        0.0310
     19 C          -1.2135    3.6642    1.3068 C.3     1  UNL1       -0.0458
     20 C          -1.2856    4.0557    2.8006 C.3     1  UNL1       -0.0118
     21 C          -0.6133    2.9153    3.5876 C.3     1  UNL1        0.1317
     22 C          -1.5869    2.2834    4.4928 C.1     1  UNL1       -0.0704
     23 C          -2.3635    1.7794    5.2148 C.1     1  UNL1       -0.1163
     24 O           0.4952    3.4212    4.3341 O.3     1  UNL1       -0.3760
     25 O           2.8556   -0.4582   -4.9445 O.3     1  UNL1       -0.5068
     26 H           0.3092    0.3698    3.9995 H       1  UNL1        0.0236
     27 H          -1.2476    0.1628    3.1618 H       1  UNL1        0.0236
     28 H           0.2736   -0.2186    2.3200 H       1  UNL1        0.0236
     29 H           1.9766    2.0269    2.9937 H       1  UNL1        0.0272
     30 H           1.3551    3.3575    1.9923 H       1  UNL1        0.0272
     31 H           1.6773    0.4726    1.0628 H       1  UNL1        0.0271
     32 H           2.8037    1.8036    0.6926 H       1  UNL1        0.0271
     33 H           2.9618    2.7034   -1.7323 H       1  UNL1        0.0622
     34 H           3.8552    1.6658   -3.7718 H       1  UNL1        0.0654
     35 H           0.7663   -1.2764   -3.6046 H       1  UNL1        0.0657
     36 H          -0.3767   -1.5204   -1.4291 H       1  UNL1        0.0313
     37 H          -1.3602   -0.1542   -1.9979 H       1  UNL1        0.0313
     38 H           0.1338   -0.3834    0.6459 H       1  UNL1        0.0271
     39 H          -1.6280   -0.2732    0.3978 H       1  UNL1        0.0271
     40 H          -0.3463    4.1226    0.8314 H       1  UNL1        0.0269
     41 H          -2.1290    3.9492    0.7884 H       1  UNL1        0.0269
     42 H          -0.7506    4.9906    2.9678 H       1  UNL1        0.0303
     43 H          -2.3256    4.1607    3.1093 H       1  UNL1        0.0303
     44 H          -3.0581    1.3287    5.8605 H       1  UNL1        0.1229
     45 H           0.2516    4.0686    5.0099 H       1  UNL1        0.2114
     46 H           2.4782   -0.1089   -5.7634 H       1  UNL1        0.2921
@<TRIPOS>BOND
     1     1     2    1
     2     1    26    1
     3     1    27    1
     4     1    28    1
     5     2    17    1
     6     2    21    1
     7     2     3    1
     8     3     4    1
     9     3    29    1
    10     3    30    1
    11     4     5    1
    12     4    31    1
    13     4    32    1
    14     5     6    1
    15     5    15    1
    16     5     7    1
    17     7    12   ar
    18     7     8   ar
    19     8     9   ar
    20     8    33    1
    21     9    10   ar
    22     9    34    1
    23    10    11   ar
    24    10    25    1
    25    11    12   ar
    26    11    35    1
    27    12    13    1
    28    13    14    1
    29    13    36    1
    30    13    37    1
    31    14    15    1
    32    14    38    1
    33    14    39    1
    34    15    16    1
    35    15    17    1
    36    17    18    1
    37    17    19    1
    38    19    20    1
    39    19    40    1
    40    19    41    1
    41    20    21    1
    42    20    42    1
    43    20    43    1
    44    21    22    1
    45    21    24    1
    46    22    23    3
    47    23    44    1
    48    24    45    1
    49    25    46    1
