@<TRIPOS>MOLECULE
ZINC11592761
 22 23 0 0 0
SMALL
GASTEIGER

@<TRIPOS>ATOM
      1 C           0.9540   -0.3546    1.0516 C.3     1  UNL1        0.0767
      2 C           1.9767    0.8199    1.1317 C.3     1  UNL1        0.1071
      3 H           1.8962    1.3414    2.0854 H       1  UNL1        0.0643
      4 C           1.5317    1.7038   -0.0034 C.3     1  UNL1        0.1166
      5 H           1.9354    1.3018   -0.9327 H       1  UNL1        0.0650
      6 C          -0.0170    1.4054    0.0098 C.3     1  UNL1        0.1331
      7 H          -0.4895    1.7853    0.9156 H       1  UNL1        0.0663
      8 O           0.0021   -0.0041    0.0020 O.3     1  UNL1       -0.3673
      9 C          -0.3888    2.2433   -1.2051 C.3     1  UNL1        0.2283
     10 H          -0.1097    1.7414   -2.1315 H       1  UNL1        0.0858
     11 C           0.4969    3.5056   -0.9564 C.3     1  UNL1        0.0947
     12 O           1.5839    3.0903   -0.0820 O.3     1  UNL1       -0.3672
     13 O          -1.7784    2.5765   -1.1986 O.2     1  UNL1       -0.2081
     14 N          -2.3133    2.8411   -2.4827 N.pl3   1  UNL1        0.2847
     15 O          -1.5979    2.7735   -3.4662 O.2     1  UNL1        0.0934
     16 O          -3.4887    3.1364   -2.6039 O.co2   1  UNL1       -0.5338
     17 O           3.3098    0.3505    0.9201 O.3     1  UNL1       -0.3869
     18 H           0.4361   -0.4648    2.0043 H       1  UNL1        0.0586
     19 H           1.4681   -1.2811    0.7958 H       1  UNL1        0.0586
     20 H          -0.0925    4.2853   -0.4739 H       1  UNL1        0.0600
     21 H           0.8979    3.8725   -1.9012 H       1  UNL1        0.0600
     22 H           3.6094   -0.2924    1.5773 H       1  UNL1        0.2100
@<TRIPOS>UNITY_ATOM_ATTR
14 1
charge 1
16 1
charge -1
@<TRIPOS>BOND
     1     1     8    1
     2     1     2    1
     3     1    18    1
     4     1    19    1
     5     2     3    1
     6     2     4    1
     7     2    17    1
     8     4     5    1
     9     4    12    1
    10     4     6    1
    11     6     7    1
    12     6     8    1
    13     6     9    1
    14     9    10    1
    15     9    11    1
    16     9    13    1
    17    11    12    1
    18    11    20    1
    19    11    21    1
    20    13    14    1
    21    14    15    2
    22    14    16    1
    23    17    22    1
