@<TRIPOS>MOLECULE
ZINC11616744
 69 73 0 0 0
SMALL
GASTEIGER

@<TRIPOS>ATOM
      1 C          -1.6137   -3.1521    4.2081 C.3     1  UNL1       -0.0583
      2 C          -0.6740   -2.0628    3.6873 C.3     1  UNL1        0.0041
      3 H          -0.9019   -1.1128    4.1753 H       1  UNL1        0.0341
      4 C          -0.8120   -1.9213    2.1609 C.3     1  UNL1       -0.0426
      5 C           0.6158   -1.5991    1.6518 C.3     1  UNL1       -0.0253
      6 H           0.7690   -1.9825    0.6280 H       1  UNL1        0.0311
      7 C           0.7823   -0.0802    1.6821 C.3     1  UNL1        0.0003
      8 H           0.4756    0.3116    2.6476 H       1  UNL1        0.0336
      9 C          -0.0807    0.5393    0.5734 C.3     1  UNL1       -0.0432
     10 C          -0.1599    2.0416    0.8354 C.3     1  UNL1       -0.0301
     11 C           1.2119    2.5945    1.1395 C.2     1  UNL1       -0.0532
     12 C           1.2732    3.9204    1.3523 C.2     1  UNL1       -0.0148
     13 C           2.5692    4.5441    1.6886 C.2     1  UNL1        0.1787
     14 O           2.7403    5.7553    1.5892 O.2     1  UNL1       -0.2879
     15 C           3.6476    3.6615    2.1871 C.2     1  UNL1       -0.0180
     16 C           3.5712    2.3442    1.9499 C.2     1  UNL1       -0.0674
     17 C           2.4389    1.7580    1.1713 C.3     1  UNL1        0.0443
     18 C           2.2380    0.2827    1.4111 C.3     1  UNL1        0.1526
     19 C           3.0811   -0.2277    2.5784 C.3     1  UNL1        0.0910
     20 H           4.1434   -0.0217    2.3531 H       1  UNL1        0.0626
     21 C           2.9316   -1.7287    2.7393 C.3     1  UNL1       -0.0141
     22 C           1.5473   -2.3051    2.6442 C.3     1  UNL1        0.0208
     23 C           0.7926   -2.4514    3.9635 C.3     1  UNL1        0.1814
     24 C           1.3432   -1.6045    5.0743 C.2     1  UNL1        0.2024
     25 O           2.2345   -2.0273    5.7709 O.2     1  UNL1       -0.2907
     26 C           0.7837   -0.2270    5.3200 C.3     1  UNL1        0.1063
     27 O           1.5588    0.4297    6.3250 O.3     1  UNL1       -0.3874
     28 O           0.8319   -3.8545    4.3788 O.3     1  UNL1       -0.4459
     29 C           2.0386   -4.3670    4.6885 C.2     1  UNL1        0.3401
     30 O           3.0429   -3.7078    4.5084 O.2     1  UNL1       -0.2449
     31 C           2.1406   -5.7308    5.2471 C.ar    1  UNL1        0.0590
     32 C           0.9878   -6.4891    5.4607 C.ar    1  UNL1       -0.0478
     33 C           1.0907   -7.7639    5.9777 C.ar    1  UNL1       -0.0610
     34 C           2.3317   -8.2872    6.2947 C.ar    1  UNL1       -0.0617
     35 C           3.4777   -7.5391    6.0908 C.ar    1  UNL1       -0.0610
     36 C           3.3897   -6.2651    5.5691 C.ar    1  UNL1       -0.0478
     37 C           1.7324   -3.7496    2.0994 C.3     1  UNL1       -0.0551
     38 O           2.7453    0.4711    3.7752 O.3     1  UNL1       -0.3886
     39 F           2.6420   -0.3936    0.2515 F       1  UNL1       -0.2377
     40 C           2.9480    1.8074   -0.2813 C.3     1  UNL1       -0.0493
     41 H          -1.5305   -3.2154    5.2931 H       1  UNL1        0.0234
     42 H          -2.6403   -2.9069    3.9362 H       1  UNL1        0.0234
     43 H          -1.3397   -4.1101    3.7662 H       1  UNL1        0.0234
     44 H          -1.1780   -2.8537    1.7220 H       1  UNL1        0.0272
     45 H          -1.5050   -1.1117    1.9176 H       1  UNL1        0.0272
     46 H          -1.0813    0.1075    0.5942 H       1  UNL1        0.0272
     47 H           0.3744    0.3517   -0.3991 H       1  UNL1        0.0272
     48 H          -0.5546    2.5466   -0.0451 H       1  UNL1        0.0310
     49 H          -0.8114    2.2301    1.6877 H       1  UNL1        0.0310
     50 H           0.3656    4.5289    1.2755 H       1  UNL1        0.0656
     51 H           4.5154    4.0765    2.7048 H       1  UNL1        0.0653
     52 H           4.3706    1.7027    2.3294 H       1  UNL1        0.0583
     53 H           3.5294   -2.2012    1.9301 H       1  UNL1        0.0298
     54 H           3.4185   -2.0531    3.6622 H       1  UNL1        0.0298
     55 H           0.8188    0.3030    4.4727 H       1  UNL1        0.0638
     56 H          -0.2504   -0.3092    5.6545 H       1  UNL1        0.0638
     57 H           1.2548    1.3234    6.5347 H       1  UNL1        0.2100
     58 H           0.0182   -6.0801    5.2180 H       1  UNL1        0.0626
     59 H           0.2002   -8.3532    6.1394 H       1  UNL1        0.0618
     60 H           2.4063   -9.2844    6.7027 H       1  UNL1        0.0618
     61 H           4.4432   -7.9536    6.3403 H       1  UNL1        0.0618
     62 H           4.2850   -5.6825    5.4098 H       1  UNL1        0.0626
     63 H           2.4559   -4.2811    2.7177 H       1  UNL1        0.0237
     64 H           0.7769   -4.2734    2.1266 H       1  UNL1        0.0237
     65 H           2.0943   -3.7069    1.0721 H       1  UNL1        0.0237
     66 H           3.2015    0.1443    4.5627 H       1  UNL1        0.2099
     67 H           2.1989    1.3738   -0.9438 H       1  UNL1        0.0242
     68 H           3.1301    2.8433   -0.5675 H       1  UNL1        0.0242
     69 H           3.8754    1.2402   -0.3608 H       1  UNL1        0.0242
@<TRIPOS>BOND
     1     1     2    1
     2     1    41    1
     3     1    42    1
     4     1    43    1
     5     2     3    1
     6     2    23    1
     7     2     4    1
     8     4     5    1
     9     4    44    1
    10     4    45    1
    11     5     6    1
    12     5    22    1
    13     5     7    1
    14     7     8    1
    15     7    18    1
    16     7     9    1
    17     9    10    1
    18     9    46    1
    19     9    47    1
    20    10    11    1
    21    10    48    1
    22    10    49    1
    23    11    17    1
    24    11    12    2
    25    12    13    1
    26    12    50    1
    27    13    14    2
    28    13    15    1
    29    15    16    2
    30    15    51    1
    31    16    17    1
    32    16    52    1
    33    17    18    1
    34    17    40    1
    35    18    19    1
    36    18    39    1
    37    19    20    1
    38    19    21    1
    39    19    38    1
    40    21    22    1
    41    21    53    1
    42    21    54    1
    43    22    23    1
    44    22    37    1
    45    23    24    1
    46    23    28    1
    47    24    25    2
    48    24    26    1
    49    26    27    1
    50    26    55    1
    51    26    56    1
    52    27    57    1
    53    28    29    1
    54    29    30    2
    55    29    31    1
    56    31    36   ar
    57    31    32   ar
    58    32    33   ar
    59    32    58    1
    60    33    34   ar
    61    33    59    1
    62    34    35   ar
    63    34    60    1
    64    35    36   ar
    65    35    61    1
    66    36    62    1
    67    37    63    1
    68    37    64    1
    69    37    65    1
    70    38    66    1
    71    40    67    1
    72    40    68    1
    73    40    69    1
