@<TRIPOS>MOLECULE
ZINC00001370
 32 35 0 0 0
SMALL
GASTEIGER

@<TRIPOS>ATOM
      1 C          -1.7457   -3.8538   -2.6372 C.ar    1  UNL1       -0.0617
      2 C          -1.2667   -2.5785   -2.8786 C.ar    1  UNL1       -0.0611
      3 C          -0.3181   -2.0252   -2.0433 C.ar    1  UNL1       -0.0526
      4 C           0.1579   -2.7543   -0.9537 C.ar    1  UNL1        0.0006
      5 C          -0.3246   -4.0417   -0.7189 C.ar    1  UNL1       -0.0526
      6 C          -1.2777   -4.5818   -1.5578 C.ar    1  UNL1       -0.0611
      7 C           1.1764   -2.1661   -0.0530 C.2     1  UNL1        0.0752
      8 N           1.9210   -3.0040    0.5811 N.2     1  UNL1       -0.2749
      9 C           2.9554   -2.5632    1.5233 C.3     1  UNL1        0.1004
     10 C           3.9477   -1.7257    0.7569 C.ar    1  UNL1        0.1593
     11 N           5.2242   -1.9411    0.6167 N.ar    1  UNL1       -0.1324
     12 N           5.7348   -1.0354   -0.1432 N.ar    1  UNL1       -0.1375
     13 C           4.8081   -0.1905   -0.5139 C.ar    1  UNL1        0.1244
     14 N           3.6500   -0.5929    0.0725 N.ar    1  UNL1       -0.2834
     15 C           2.4026    0.0312    0.0234 C.ar    1  UNL1        0.0585
     16 C           1.2129   -0.7006    0.0066 C.ar    1  UNL1        0.0258
     17 C          -0.0078   -0.0099    0.0169 C.ar    1  UNL1       -0.0322
     18 C          -0.0328    1.3670    0.0318 C.ar    1  UNL1        0.0417
     19 C           1.1518    2.0855    0.0244 C.ar    1  UNL1       -0.0414
     20 C           2.3609    1.4213    0.0171 C.ar    1  UNL1       -0.0357
     21 CL         -1.5531    2.2048    0.0526 Cl      1  UNL1       -0.0835
     22 H          -2.4882   -4.2827   -3.2939 H       1  UNL1        0.0618
     23 H          -1.6358   -2.0151   -3.7228 H       1  UNL1        0.0618
     24 H           0.0548   -1.0295   -2.2325 H       1  UNL1        0.0624
     25 H           0.0435   -4.6128    0.1206 H       1  UNL1        0.0624
     26 H          -1.6557   -5.5767   -1.3743 H       1  UNL1        0.0618
     27 H           2.5033   -1.9671    2.3159 H       1  UNL1        0.0590
     28 H           3.4568   -3.4301    1.9535 H       1  UNL1        0.0590
     29 H           4.9382    0.6638   -1.1617 H       1  UNL1        0.1052
     30 H          -0.9357   -0.5623    0.0135 H       1  UNL1        0.0639
     31 H           1.1286    3.1652    0.0240 H       1  UNL1        0.0633
     32 H           3.2820    1.9851    0.0072 H       1  UNL1        0.0639
@<TRIPOS>BOND
     1     1     6   ar
     2     1     2   ar
     3     1    22    1
     4     2     3   ar
     5     2    23    1
     6     3     4   ar
     7     3    24    1
     8     4     5   ar
     9     4     7    1
    10     5     6   ar
    11     5    25    1
    12     6    26    1
    13     7    16    1
    14     7     8    2
    15     8     9    1
    16     9    10    1
    17     9    27    1
    18     9    28    1
    19    10    14   ar
    20    10    11   ar
    21    11    12   ar
    22    12    13   ar
    23    13    14   ar
    24    13    29    1
    25    14    15    1
    26    15    20   ar
    27    15    16   ar
    28    16    17   ar
    29    17    18   ar
    30    17    30    1
    31    18    19   ar
    32    18    21    1
    33    19    20   ar
    34    19    31    1
    35    20    32    1
