@<TRIPOS>MOLECULE
ZINC00000740
 34 36 0 0 0
SMALL
GASTEIGER

@<TRIPOS>ATOM
      1 C          -1.5477    1.4411   -0.1687 C.3     1  UNL1        0.0084
      2 N          -0.1436    1.0295   -0.0962 N.am    1  UNL1       -0.2701
      3 C           0.8184    2.0267   -0.1538 C.ar    1  UNL1        0.0453
      4 C           0.5651    3.2036    0.5539 C.ar    1  UNL1       -0.0383
      5 C           1.4721    4.2400    0.5415 C.ar    1  UNL1       -0.0416
      6 C           2.6512    4.1234   -0.1781 C.ar    1  UNL1        0.0417
      7 C           2.9181    2.9699   -0.8801 C.ar    1  UNL1       -0.0324
      8 C           2.0041    1.9049   -0.8751 C.ar    1  UNL1        0.0234
      9 C           2.3560    0.7010   -1.6441 C.2     1  UNL1        0.0780
     10 N           2.1484   -0.5069   -1.2552 N.2     1  UNL1       -0.2428
     11 C           1.5153   -0.8068    0.0285 C.3     1  UNL1        0.2248
     12 H           1.4946   -1.8855    0.1842 H       1  UNL1        0.0952
     13 C           0.1090   -0.2727    0.0145 C.2     1  UNL1        0.2709
     14 O          -0.8185   -1.0486    0.1068 O.2     1  UNL1       -0.2702
     15 O           2.2530   -0.1852    1.0828 O.3     1  UNL1       -0.3636
     16 C           2.9970    0.8949   -2.9656 C.ar    1  UNL1        0.0007
     17 C           2.8134    2.0877   -3.6646 C.ar    1  UNL1       -0.0526
     18 C           3.4165    2.2641   -4.8930 C.ar    1  UNL1       -0.0611
     19 C           4.1943    1.2569   -5.4358 C.ar    1  UNL1       -0.0617
     20 C           4.3760    0.0694   -4.7496 C.ar    1  UNL1       -0.0611
     21 C           3.7819   -0.1169   -3.5183 C.ar    1  UNL1       -0.0526
     22 CL          3.7911    5.4326   -0.1942 Cl      1  UNL1       -0.0835
     23 H          -2.1876    0.5602   -0.1169 H       1  UNL1        0.0433
     24 H          -1.7753    2.1051    0.6652 H       1  UNL1        0.0433
     25 H          -1.7249    1.9641   -1.1085 H       1  UNL1        0.0433
     26 H          -0.3514    3.3022    1.1166 H       1  UNL1        0.0637
     27 H           1.2642    5.1450    1.0929 H       1  UNL1        0.0633
     28 H           3.8380    2.8838   -1.4394 H       1  UNL1        0.0639
     29 H           3.1703   -0.4836    1.1500 H       1  UNL1        0.2125
     30 H           2.2034    2.8732   -3.2435 H       1  UNL1        0.0624
     31 H           3.2778    3.1886   -5.4337 H       1  UNL1        0.0618
     32 H           4.6613    1.3981   -6.3993 H       1  UNL1        0.0618
     33 H           4.9837   -0.7135   -5.1788 H       1  UNL1        0.0618
     34 H           3.9241   -1.0445   -2.9837 H       1  UNL1        0.0624
@<TRIPOS>BOND
     1     1     2    1
     2     1    23    1
     3     1    24    1
     4     1    25    1
     5     2    13   am
     6     2     3    1
     7     3     8   ar
     8     3     4   ar
     9     4     5   ar
    10     4    26    1
    11     5     6   ar
    12     5    27    1
    13     6     7   ar
    14     6    22    1
    15     7     8   ar
    16     7    28    1
    17     8     9    1
    18     9    10    2
    19     9    16    1
    20    10    11    1
    21    11    12    1
    22    11    13    1
    23    11    15    1
    24    13    14    2
    25    15    29    1
    26    16    21   ar
    27    16    17   ar
    28    17    18   ar
    29    17    30    1
    30    18    19   ar
    31    18    31    1
    32    19    20   ar
    33    19    32    1
    34    20    21   ar
    35    20    33    1
    36    21    34    1
