@<TRIPOS>MOLECULE
ZINC03830801
 53 56 0 0 0
SMALL
GASTEIGER

@<TRIPOS>ATOM
      1 C           2.8365   -2.4226   -1.9185 C.3     1  UNL1       -0.0627
      2 C           2.2033   -1.0541   -2.1774 C.3     1  UNL1       -0.0263
      3 C           2.7998   -0.0283   -1.2192 C.3     1  UNL1        0.0715
      4 C           2.6008   -0.4948    0.2402 C.3     1  UNL1       -0.0232
      5 C           2.2249    0.7783    1.0264 C.3     1  UNL1       -0.0467
      6 C           1.4193    1.6192   -0.0028 C.3     1  UNL1       -0.0298
      7 H           1.4424    2.6890    0.2500 H       1  UNL1        0.0310
      8 C           2.1501    1.3500   -1.3252 C.3     1  UNL1       -0.0002
      9 C           1.3115    1.5890   -2.5537 C.3     1  UNL1       -0.0445
     10 C          -0.1064    1.0509   -2.4709 C.3     1  UNL1       -0.0488
     11 C          -0.7920    1.5854   -1.2056 C.3     1  UNL1       -0.0314
     12 H          -0.8098    2.6714   -1.2193 H       1  UNL1        0.0309
     13 C          -0.0127    1.0858    0.0080 C.3     1  UNL1       -0.0340
     14 H           0.0021   -0.0041    0.0020 H       1  UNL1        0.0307
     15 C          -0.6941    1.5711    1.2936 C.3     1  UNL1       -0.0460
     16 C          -2.0900    0.9542    1.4018 C.3     1  UNL1       -0.0312
     17 C          -2.8629    1.3220    0.1464 C.2     1  UNL1       -0.0701
     18 C          -4.0384    1.8631    0.2818 C.2     1  UNL1       -0.0845
     19 C          -4.9044    2.2527   -0.8814 C.3     1  UNL1       -0.0345
     20 C          -4.5156    1.4124   -2.1016 C.3     1  UNL1       -0.0491
     21 C          -3.0166    1.5858   -2.3474 C.3     1  UNL1       -0.0460
     22 C          -2.2206    1.0312   -1.1763 C.3     1  UNL1       -0.0168
     23 H          -2.1637   -0.0526   -1.2926 H       1  UNL1        0.0348
     24 C           3.3122    2.3746   -1.3963 C.3     1  UNL1       -0.0567
     25 O           4.2095    0.0909   -1.4790 O.3     1  UNL1       -0.3880
     26 H           2.4102   -3.1557   -2.6032 H       1  UNL1        0.0231
     27 H           3.9132   -2.3606   -2.0768 H       1  UNL1        0.0231
     28 H           2.6374   -2.7265   -0.8908 H       1  UNL1        0.0231
     29 H           1.1266   -1.1161   -2.0191 H       1  UNL1        0.0290
     30 H           2.4025   -0.7502   -3.2051 H       1  UNL1        0.0290
     31 H           3.5263   -0.9186    0.6259 H       1  UNL1        0.0293
     32 H           1.7959   -1.2255    0.2931 H       1  UNL1        0.0293
     33 H           3.1187    1.3099    1.3519 H       1  UNL1        0.0269
     34 H           1.6065    0.5232    1.8879 H       1  UNL1        0.0269
     35 H           1.2500    2.6810   -2.7077 H       1  UNL1        0.0272
     36 H           1.8117    1.1886   -3.4365 H       1  UNL1        0.0272
     37 H          -0.6706    1.3979   -3.3472 H       1  UNL1        0.0268
     38 H          -0.1277   -0.0347   -2.4648 H       1  UNL1        0.0268
     39 H          -0.1000    1.2743    2.1569 H       1  UNL1        0.0271
     40 H          -0.7788    2.6577    1.2681 H       1  UNL1        0.0271
     41 H          -2.6006    1.3494    2.2796 H       1  UNL1        0.0310
     42 H          -2.0083   -0.1299    1.4798 H       1  UNL1        0.0310
     43 H          -4.4115    2.0373    1.2808 H       1  UNL1        0.0572
     44 H          -5.9508    2.0713   -0.6331 H       1  UNL1        0.0307
     45 H          -4.7615    3.3098   -1.1055 H       1  UNL1        0.0307
     46 H          -4.7360    0.3623   -1.9100 H       1  UNL1        0.0268
     47 H          -5.0721    1.7516   -2.9748 H       1  UNL1        0.0268
     48 H          -2.7917    2.6457   -2.4629 H       1  UNL1        0.0271
     49 H          -2.7374    1.0549   -3.2563 H       1  UNL1        0.0271
     50 H           3.9773    2.2292   -0.5451 H       1  UNL1        0.0236
     51 H           3.8693    2.2284   -2.3218 H       1  UNL1        0.0236
     52 H           2.9068    3.3861   -1.3721 H       1  UNL1        0.0236
     53 H           4.6977   -0.7390   -1.3885 H       1  UNL1        0.2102
@<TRIPOS>BOND
     1     1     2    1
     2     1    26    1
     3     1    27    1
     4     1    28    1
     5     2     3    1
     6     2    29    1
     7     2    30    1
     8     3     8    1
     9     3     4    1
    10     3    25    1
    11     4     5    1
    12     4    31    1
    13     4    32    1
    14     5     6    1
    15     5    33    1
    16     5    34    1
    17     6     7    1
    18     6    13    1
    19     6     8    1
    20     8     9    1
    21     8    24    1
    22     9    10    1
    23     9    35    1
    24     9    36    1
    25    10    11    1
    26    10    37    1
    27    10    38    1
    28    11    12    1
    29    11    22    1
    30    11    13    1
    31    13    14    1
    32    13    15    1
    33    15    16    1
    34    15    39    1
    35    15    40    1
    36    16    17    1
    37    16    41    1
    38    16    42    1
    39    17    22    1
    40    17    18    2
    41    18    19    1
    42    18    43    1
    43    19    20    1
    44    19    44    1
    45    19    45    1
    46    20    21    1
    47    20    46    1
    48    20    47    1
    49    21    22    1
    50    21    48    1
    51    21    49    1
    52    22    23    1
    53    24    50    1
    54    24    51    1
    55    24    52    1
    56    25    53    1
