@<TRIPOS>MOLECULE
ZINC11592852
 46 49 0 0 0
SMALL
GASTEIGER

@<TRIPOS>ATOM
      1 C          -2.3450    3.5275    1.6450 C.3     1  UNL1       -0.0526
      2 C          -1.9754    2.3519    0.7383 C.3     1  UNL1        0.0293
      3 C          -3.2148    1.5580    0.3786 C.3     1  UNL1       -0.0404
      4 C          -4.1023    2.3325   -0.5920 C.3     1  UNL1       -0.0480
      5 C          -3.3148    2.5760   -1.8842 C.3     1  UNL1       -0.0247
      6 H          -2.9533    1.6104   -2.2376 H       1  UNL1        0.0315
      7 C          -2.1085    3.4470   -1.5615 C.3     1  UNL1       -0.0294
      8 H          -1.5293    3.5944   -2.4730 H       1  UNL1        0.0310
      9 C          -1.2187    2.8187   -0.5180 C.3     1  UNL1       -0.0251
     10 H          -0.4525    3.5343   -0.2197 H       1  UNL1        0.0313
     11 C          -0.5414    1.5273   -1.0159 C.3     1  UNL1       -0.0424
     12 C          -0.1079    0.8335    0.2963 C.3     1  UNL1        0.0067
     13 C          -0.9909    1.3854    1.3981 C.2     1  UNL1        0.1395
     14 O          -0.9286    1.1129    2.5729 O.2     1  UNL1       -0.2968
     15 C          -2.6185    4.8132   -1.0747 C.3     1  UNL1       -0.0245
     16 C          -3.2707    5.4747   -2.2739 C.2     1  UNL1       -0.0500
     17 C          -3.1027    6.7754   -2.5242 C.2     1  UNL1       -0.0952
     18 C          -4.0891    4.6344   -3.1448 C.2     1  UNL1       -0.0312
     19 C          -4.7799    5.2015   -4.1819 C.2     1  UNL1       -0.0107
     20 C          -5.4957    4.2341   -5.0454 C.2     1  UNL1        0.1790
     21 O          -6.6085    4.4518   -5.4908 O.2     1  UNL1       -0.2879
     22 C          -4.7521    2.9750   -5.3274 C.2     1  UNL1       -0.0180
     23 C          -4.0883    2.4404   -4.2823 C.2     1  UNL1       -0.0699
     24 C          -4.1934    3.1535   -2.9623 C.3     1  UNL1        0.0147
     25 C          -5.6195    2.8976   -2.4708 C.3     1  UNL1       -0.0518
     26 H          -3.1126    4.1319    1.1616 H       1  UNL1        0.0239
     27 H          -2.7248    3.1490    2.5940 H       1  UNL1        0.0239
     28 H          -1.4611    4.1392    1.8255 H       1  UNL1        0.0239
     29 H          -3.7806    1.3372    1.2837 H       1  UNL1        0.0275
     30 H          -2.9047    0.6227   -0.0874 H       1  UNL1        0.0275
     31 H          -4.3828    3.2879   -0.1487 H       1  UNL1        0.0269
     32 H          -4.9993    1.7542   -0.8134 H       1  UNL1        0.0269
     33 H           0.3261    1.7605   -1.6333 H       1  UNL1        0.0272
     34 H          -1.2504    0.9068   -1.5639 H       1  UNL1        0.0272
     35 H          -0.2244   -0.1555    0.2047 H       1  UNL1        0.0342
     36 H           0.9373    1.0581    0.5089 H       1  UNL1        0.0342
     37 H          -3.3500    4.6776   -0.2781 H       1  UNL1        0.0316
     38 H          -1.7851    5.4186   -0.7182 H       1  UNL1        0.0316
     39 H          -2.4929    7.3775   -1.8669 H       1  UNL1        0.0538
     40 H          -3.5767    7.2254   -3.3840 H       1  UNL1        0.0538
     41 H          -4.8017    6.2672   -4.3557 H       1  UNL1        0.0659
     42 H          -4.7452    2.5189   -6.3063 H       1  UNL1        0.0653
     43 H          -3.5051    1.5378   -4.3890 H       1  UNL1        0.0582
     44 H          -6.3303    3.2566   -3.2152 H       1  UNL1        0.0241
     45 H          -5.7642    1.8283   -2.3164 H       1  UNL1        0.0241
     46 H          -5.7801    3.4254   -1.5308 H       1  UNL1        0.0241
@<TRIPOS>BOND
     1     1     2    1
     2     1    26    1
     3     1    27    1
     4     1    28    1
     5     2     9    1
     6     2    13    1
     7     2     3    1
     8     3     4    1
     9     3    29    1
    10     3    30    1
    11     4     5    1
    12     4    31    1
    13     4    32    1
    14     5     6    1
    15     5    24    1
    16     5     7    1
    17     7     8    1
    18     7     9    1
    19     7    15    1
    20     9    10    1
    21     9    11    1
    22    11    12    1
    23    11    33    1
    24    11    34    1
    25    12    13    1
    26    12    35    1
    27    12    36    1
    28    13    14    2
    29    15    16    1
    30    15    37    1
    31    15    38    1
    32    16    17    2
    33    16    18    1
    34    17    39    1
    35    17    40    1
    36    18    24    1
    37    18    19    2
    38    19    20    1
    39    19    41    1
    40    20    21    2
    41    20    22    1
    42    22    23    2
    43    22    42    1
    44    23    24    1
    45    23    43    1
    46    24    25    1
    47    25    44    1
    48    25    45    1
    49    25    46    1
