@<TRIPOS>MOLECULE
ZINC11616246
 58 62 0 0 0
SMALL
GASTEIGER

@<TRIPOS>ATOM
      1 C          -4.4832    3.0871    2.2076 C.3     1  UNL1       -0.0020
      2 C          -3.0864    2.8145    2.7031 C.2     1  UNL1        0.1741
      3 O          -2.3710    3.7318    3.0274 O.2     1  UNL1       -0.2934
      4 C          -2.5834    1.4005    2.7938 C.3     1  UNL1        0.1759
      5 C          -1.4415    1.3045    3.8380 C.3     1  UNL1       -0.0049
      6 C          -0.1519    0.9478    3.0518 C.3     1  UNL1       -0.0450
      7 C          -0.4857    1.4025    1.6220 C.3     1  UNL1       -0.0248
      8 H          -0.4296    2.4967    1.5932 H       1  UNL1        0.0313
      9 C          -1.9535    0.9393    1.4781 C.3     1  UNL1        0.0182
     10 C          -2.4981    1.5415    0.2036 C.3     1  UNL1       -0.0430
     11 C          -1.6980    1.0069   -0.9870 C.3     1  UNL1       -0.0482
     12 C          -0.1905    1.1019   -0.8556 C.3     1  UNL1       -0.0247
     13 H           0.1943    0.2732   -1.5047 H       1  UNL1        0.0315
     14 C           0.3571    0.7982    0.5262 C.3     1  UNL1       -0.0141
     15 H           0.3519   -0.3058    0.6521 H       1  UNL1        0.0349
     16 C           1.7929    1.2023    0.6989 C.2     1  UNL1       -0.0617
     17 C           2.4931    1.8875   -0.1898 C.2     1  UNL1        0.0412
     18 C           1.8641    2.3601   -1.4322 C.2     1  UNL1       -0.0196
     19 C           2.6689    2.7775   -2.4285 C.2     1  UNL1       -0.0138
     20 C           2.2015    3.1868   -3.6829 C.2     1  UNL1        0.1598
     21 O           2.9489    3.7303   -4.4695 O.2     1  UNL1       -0.2924
     22 C           0.7593    2.9483   -4.0425 C.3     1  UNL1        0.0255
     23 H           0.7047    2.5640   -4.9641 H       1  UNL1        0.0384
     24 C          -0.2917    3.9229   -3.5115 C.3     1  UNL1       -0.0386
     25 C          -0.1709    2.5278   -2.9074 C.3     1  UNL1       -0.0208
     26 H          -0.9382    1.7995   -3.1850 H       1  UNL1        0.0316
     27 C           0.3641    2.3665   -1.4951 C.3     1  UNL1        0.0013
     28 C          -0.1078    3.5842   -0.6984 C.3     1  UNL1       -0.0549
     29 CL          4.1608    2.2577    0.1279 Cl      1  UNL1       -0.0836
     30 C          -2.0551   -0.5888    1.4169 C.3     1  UNL1       -0.0552
     31 O          -3.6686    0.5055    3.1609 O.3     1  UNL1       -0.4500
     32 C          -4.2700    0.7284    4.3400 C.2     1  UNL1        0.3049
     33 O          -3.8465    1.5827    5.0822 O.2     1  UNL1       -0.2511
     34 C          -5.4732   -0.0869    4.7382 C.3     1  UNL1        0.0333
     35 H          -4.9547    2.2201    2.0462 H       1  UNL1        0.0307
     36 H          -5.0280    3.6633    2.9554 H       1  UNL1        0.0307
     37 H          -4.4347    3.6531    1.2773 H       1  UNL1        0.0307
     38 H          -1.3179    2.2655    4.3409 H       1  UNL1        0.0308
     39 H          -1.6658    0.5279    4.5671 H       1  UNL1        0.0308
     40 H           0.6991    1.5137    3.4360 H       1  UNL1        0.0270
     41 H           0.0551   -0.1184    3.0903 H       1  UNL1        0.0270
     42 H          -2.4380    2.6295    0.2240 H       1  UNL1        0.0272
     43 H          -3.5521    1.2577    0.0874 H       1  UNL1        0.0272
     44 H          -2.0139    1.5680   -1.8759 H       1  UNL1        0.0269
     45 H          -1.9720   -0.0357   -1.1740 H       1  UNL1        0.0269
     46 H           2.2880    0.9098    1.6174 H       1  UNL1        0.0589
     47 H           3.7336    2.7998   -2.2508 H       1  UNL1        0.0656
     48 H          -1.1559    4.1204   -4.1536 H       1  UNL1        0.0275
     49 H           0.0773    4.7896   -2.9682 H       1  UNL1        0.0275
     50 H           0.3016    4.4908   -1.1440 H       1  UNL1        0.0238
     51 H          -1.1967    3.6303   -0.7162 H       1  UNL1        0.0238
     52 H           0.2354    3.4991    0.3326 H       1  UNL1        0.0238
     53 H          -1.4675   -0.9587    0.5767 H       1  UNL1        0.0237
     54 H          -1.6724   -1.0158    2.3439 H       1  UNL1        0.0237
     55 H          -3.0978   -0.8787    1.2867 H       1  UNL1        0.0237
     56 H          -5.2009   -1.1416    4.7767 H       1  UNL1        0.0342
     57 H          -5.8212    0.2346    5.7199 H       1  UNL1        0.0342
     58 H          -6.2679    0.0567    4.0061 H       1  UNL1        0.0342
@<TRIPOS>BOND
     1     1     2    1
     2     1    35    1
     3     1    36    1
     4     1    37    1
     5     2     3    2
     6     2     4    1
     7     4     9    1
     8     4     5    1
     9     4    31    1
    10     5     6    1
    11     5    38    1
    12     5    39    1
    13     6     7    1
    14     6    40    1
    15     6    41    1
    16     7     8    1
    17     7    14    1
    18     7     9    1
    19     9    10    1
    20     9    30    1
    21    10    11    1
    22    10    42    1
    23    10    43    1
    24    11    12    1
    25    11    44    1
    26    11    45    1
    27    12    13    1
    28    12    27    1
    29    12    14    1
    30    14    15    1
    31    14    16    1
    32    16    17    2
    33    16    46    1
    34    17    18    1
    35    17    29    1
    36    18    27    1
    37    18    19    2
    38    19    20    1
    39    19    47    1
    40    20    21    2
    41    20    22    1
    42    22    23    1
    43    22    25    1
    44    22    24    1
    45    24    25    1
    46    24    48    1
    47    24    49    1
    48    25    26    1
    49    25    27    1
    50    27    28    1
    51    28    50    1
    52    28    51    1
    53    28    52    1
    54    30    53    1
    55    30    54    1
    56    30    55    1
    57    31    32    1
    58    32    33    2
    59    32    34    1
    60    34    56    1
    61    34    57    1
    62    34    58    1
