@<TRIPOS>MOLECULE
ZINC00897247
 31 33 0 0 0
SMALL
GASTEIGER

@<TRIPOS>ATOM
      1 C          -1.4103    4.2271    2.0867 C.3     1  UNL1       -0.0360
      2 C          -1.2012    5.1994    0.9240 C.3     1  UNL1        0.1300
      3 C          -1.8369    6.5920    1.2166 C.3     1  UNL1        0.0936
      4 H          -1.9462    7.1425    0.2822 H       1  UNL1        0.0585
      5 N          -0.9856    7.3530    2.1303 N.am    1  UNL1       -0.2685
      6 C           0.4661    7.1536    1.9655 C.3     1  UNL1        0.1535
      7 H           1.0419    8.0308    1.6705 H       1  UNL1        0.0750
      8 S           0.5639    5.7353    0.7927 S.O2    1  UNL1       -0.0024
      9 O           1.4036    4.7283    1.3407 O.2     1  UNL1       -0.1719
     10 O           0.8110    6.2246   -0.5183 O.2     1  UNL1       -0.1719
     11 C           0.6088    6.7288    3.4262 C.3     1  UNL1        0.0629
     12 C          -0.8960    6.9959    3.4252 C.2     1  UNL1        0.2210
     13 O          -1.7320    6.9174    4.3004 O.2     1  UNL1       -0.2754
     14 C          -3.1942    6.3996    1.8426 C.2     1  UNL1        0.0644
     15 O          -3.4664    6.9584    2.8787 O.co2   1  UNL1       -0.5478
     16 C          -1.7117    4.6121   -0.3934 C.3     1  UNL1        0.0701
     17 N          -1.0042    3.3611   -0.6770 N.ar    1  UNL1       -0.2496
     18 C          -1.5811    2.1614   -0.9199 C.ar    1  UNL1        0.0455
     19 C          -0.5663    1.2901   -1.1269 C.ar    1  UNL1        0.0693
     20 N           0.5666    1.9919   -1.0111 N.ar    1  UNL1       -0.1380
     21 N           0.2730    3.2155   -0.7443 N.ar    1  UNL1       -0.0657
     22 H          -0.8800    3.2970    1.8824 H       1  UNL1        0.0252
     23 H          -1.0254    4.6706    3.0050 H       1  UNL1        0.0252
     24 H          -2.4746    4.0210    2.2011 H       1  UNL1        0.0252
     25 H           0.8878    5.6843    3.5652 H       1  UNL1        0.0393
     26 H           1.1896    7.4175    4.0398 H       1  UNL1        0.0393
     27 H          -1.5329    5.3219   -1.2010 H       1  UNL1        0.0532
     28 H          -2.7807    4.4148   -0.3131 H       1  UNL1        0.0532
     29 H          -2.6385    1.9427   -0.9417 H       1  UNL1        0.0842
     30 H          -0.6540    0.2363   -1.3469 H       1  UNL1        0.0864
     31 O          -4.1007    5.6074    1.2490 O.co2   1  UNL1       -0.5478
@<TRIPOS>UNITY_ATOM_ATTR
31 1
charge -1
@<TRIPOS>BOND
     1     1     2    1
     2     1    22    1
     3     1    23    1
     4     1    24    1
     5     2     8    1
     6     2     3    1
     7     2    16    1
     8     3     4    1
     9     3     5    1
    10     3    14    1
    11     5    12   am
    12     5     6    1
    13     6     7    1
    14     6     8    1
    15     6    11    1
    16     8     9    2
    17     8    10    2
    18    11    12    1
    19    11    25    1
    20    11    26    1
    21    12    13    2
    22    14    15   ar
    23    14    31   ar
    24    16    17    1
    25    16    27    1
    26    16    28    1
    27    17    21   ar
    28    17    18   ar
    29    18    19   ar
    30    18    29    1
    31    19    20   ar
    32    19    30    1
    33    20    21   ar
