@<TRIPOS>MOLECULE
ZINC03201907
 46 49 0 0 0
SMALL
GASTEIGER

@<TRIPOS>ATOM
      1 C           3.5522    2.0033    1.1471 C.3     1  UNL1       -0.0428
      2 C           2.1698    0.0193    1.2015 C.3     1  UNL1       -0.0311
      3 C           0.7223   -0.4828    1.2708 C.3     1  UNL1       -0.0024
      4 C           0.0021   -0.0041    0.0020 C.3     1  UNL1        0.0089
      5 C          -1.4194   -0.5516   -0.0336 C.3     1  UNL1       -0.0427
      6 C          -2.1367   -0.0394   -1.2851 C.3     1  UNL1       -0.0522
      7 C          -2.1682    1.4902   -1.2629 C.3     1  UNL1       -0.0526
      8 C          -0.7372    2.0311   -1.2425 C.3     1  UNL1       -0.0443
      9 C          -0.0187    1.5262    0.0104 C.3     1  UNL1        0.0122
     10 H          -0.5200    1.8830    0.9101 H       1  UNL1        0.0364
     11 C           1.4316    2.0126   -0.0008 C.3     1  UNL1       -0.0134
     12 H           1.4190    3.0991    0.0854 H       1  UNL1        0.0857
     13 C           2.0794    1.6776   -1.3324 C.3     1  UNL1        0.0161
     14 C           1.7488    0.2837   -1.7933 C.ar    1  UNL1       -0.0381
     15 C           0.7839   -0.4935   -1.1906 C.ar    1  UNL1       -0.0337
     16 C           0.5109   -1.7628   -1.6754 C.ar    1  UNL1       -0.0160
     17 C           1.2123   -2.2641   -2.7600 C.ar    1  UNL1        0.1204
     18 C           2.1927   -1.4871   -3.3594 C.ar    1  UNL1       -0.0197
     19 C           2.4559   -0.2227   -2.8775 C.ar    1  UNL1       -0.0546
     20 O           0.9418   -3.5090   -3.2332 O.3     1  UNL1       -0.4951
     21 C           1.7065   -3.9573   -4.3541 C.3     1  UNL1        0.0788
     22 H           4.0771    1.6670    0.2530 H       1  UNL1        0.0778
     23 H           3.5284    3.0929    1.1663 H       1  UNL1        0.0778
     24 H           4.0707    1.6356    2.0326 H       1  UNL1        0.0778
     25 H           2.7098   -0.3057    2.0908 H       1  UNL1        0.0815
     26 H           2.6535   -0.3885    0.3139 H       1  UNL1        0.0815
     27 H           0.2303   -0.0718    2.1524 H       1  UNL1        0.0325
     28 H           0.7105   -1.5719    1.3139 H       1  UNL1        0.0325
     29 H          -1.3883   -1.6409   -0.0534 H       1  UNL1        0.0274
     30 H          -1.9583   -0.2201    0.8541 H       1  UNL1        0.0274
     31 H          -1.6046   -0.3791   -2.1737 H       1  UNL1        0.0266
     32 H          -3.1564   -0.4240   -1.3028 H       1  UNL1        0.0266
     33 H          -2.6820    1.8558   -2.1521 H       1  UNL1        0.0265
     34 H          -2.6975    1.8297   -0.3726 H       1  UNL1        0.0265
     35 H          -0.7608    3.1208   -1.2336 H       1  UNL1        0.0270
     36 H          -0.2059    1.6865   -2.1297 H       1  UNL1        0.0270
     37 H           1.7339    2.3891   -2.0825 H       1  UNL1        0.0368
     38 H           3.1609    1.7695   -1.2324 H       1  UNL1        0.0368
     39 H          -0.2525   -2.3647   -1.2048 H       1  UNL1        0.0657
     40 H           2.7482   -1.8717   -4.2020 H       1  UNL1        0.0654
     41 H           3.2194    0.3802   -3.3467 H       1  UNL1        0.0622
     42 H           1.5472   -3.2830   -5.1956 H       1  UNL1        0.0660
     43 H           2.7643   -3.9672   -4.0916 H       1  UNL1        0.0660
     44 H           1.3911   -4.9635   -4.6300 H       1  UNL1        0.0660
     45 N           2.1713    1.5027    1.1746 N.4     1  UNL1        0.2357
     46 H           1.7112    1.8459    2.0260 H       1  UNL1        0.2033
@<TRIPOS>UNITY_ATOM_ATTR
45 1
charge 1
@<TRIPOS>BOND
     1     1    22    1
     2     1    23    1
     3     1    24    1
     4     1    45    1
     5     2     3    1
     6     2    25    1
     7     2    26    1
     8     2    45    1
     9     3     4    1
    10     3    27    1
    11     3    28    1
    12     4     9    1
    13     4    15    1
    14     4     5    1
    15     5     6    1
    16     5    29    1
    17     5    30    1
    18     6     7    1
    19     6    31    1
    20     6    32    1
    21     7     8    1
    22     7    33    1
    23     7    34    1
    24     8     9    1
    25     8    35    1
    26     8    36    1
    27     9    10    1
    28     9    11    1
    29    11    12    1
    30    11    13    1
    31    11    45    1
    32    13    14    1
    33    13    37    1
    34    13    38    1
    35    14    19   ar
    36    14    15   ar
    37    15    16   ar
    38    16    17   ar
    39    16    39    1
    40    17    18   ar
    41    17    20    1
    42    18    19   ar
    43    18    40    1
    44    19    41    1
    45    20    21    1
    46    21    42    1
    47    21    43    1
    48    21    44    1
    49    45    46    1
