@<TRIPOS>MOLECULE
ZINC03831514
 46 49 0 0 0
SMALL
GASTEIGER

@<TRIPOS>ATOM
      1 C           0.5067   -0.6990    4.0970 C.3     1  UNL1       -0.0246
      2 C          -0.0572   -0.3477    2.7104 C.3     1  UNL1        0.1138
      3 C          -1.4784   -0.8949    2.6226 C.3     1  UNL1       -0.0125
      4 C          -2.1563   -0.4490    1.3290 C.3     1  UNL1       -0.0453
      5 C          -2.1801    1.0807    1.2742 C.3     1  UNL1       -0.0251
      6 H          -2.6812    1.4618    2.1666 H       1  UNL1        0.0315
      7 C          -0.7413    1.5994    1.2449 C.3     1  UNL1       -0.0304
      8 H          -0.7482    2.6958    1.2188 H       1  UNL1        0.0308
      9 C          -0.0271    1.1622    2.5244 C.3     1  UNL1        0.0024
     10 H          -0.5829    1.6109    3.3750 H       1  UNL1        0.0342
     11 C           1.3920    1.7108    2.5655 C.3     1  UNL1       -0.0363
     12 C           2.4047    0.8931    1.7802 C.3     1  UNL1        0.0453
     13 C           2.0777   -0.5755    1.7583 C.2     1  UNL1        0.3076
     14 O           2.9609   -1.4062    1.7873 O.2     1  UNL1       -0.2508
     15 O           0.7866   -0.9682    1.6992 O.3     1  UNL1       -0.4581
     16 C          -0.0127    1.0833    0.0080 C.3     1  UNL1       -0.0458
     17 C          -0.7125    1.5827   -1.2630 C.3     1  UNL1       -0.0302
     18 C          -2.1693    1.1693   -1.1950 C.2     1  UNL1       -0.0560
     19 C          -2.6951    0.5083   -2.2172 C.2     1  UNL1       -0.0149
     20 C          -4.0985    0.0695   -2.1841 C.2     1  UNL1        0.1787
     21 O          -4.5985   -0.4931   -3.1399 O.2     1  UNL1       -0.2879
     22 C          -4.8821    0.3224   -0.9632 C.2     1  UNL1       -0.0180
     23 C          -4.3359    0.9796    0.0463 C.2     1  UNL1       -0.0702
     24 C          -2.9492    1.5342    0.0339 C.3     1  UNL1        0.0108
     25 C          -3.0809    3.0577    0.0779 C.3     1  UNL1       -0.0521
     26 H          -0.1008   -0.2239    4.8673 H       1  UNL1        0.0268
     27 H           0.4868   -1.7802    4.2341 H       1  UNL1        0.0268
     28 H           1.5338   -0.3420    4.1727 H       1  UNL1        0.0268
     29 H          -1.4477   -1.9866    2.6566 H       1  UNL1        0.0304
     30 H          -2.0570   -0.5344    3.4765 H       1  UNL1        0.0304
     31 H          -3.1807   -0.8259    1.3082 H       1  UNL1        0.0270
     32 H          -1.6140   -0.8412    0.4711 H       1  UNL1        0.0270
     33 H           1.3804    2.7382    2.1621 H       1  UNL1        0.0274
     34 H           1.7220    1.7974    3.6094 H       1  UNL1        0.0274
     35 H           2.5029    1.2724    0.7609 H       1  UNL1        0.0378
     36 H           3.3962    1.0169    2.2524 H       1  UNL1        0.0378
     37 H           0.0021   -0.0041    0.0020 H       1  UNL1        0.0271
     38 H           1.0099    1.4631    0.0003 H       1  UNL1        0.0271
     39 H          -0.6272    2.6653   -1.3301 H       1  UNL1        0.0310
     40 H          -0.2424    1.1252   -2.1362 H       1  UNL1        0.0310
     41 H          -2.0868    0.2908   -3.0831 H       1  UNL1        0.0655
     42 H          -5.8973   -0.0390   -0.8880 H       1  UNL1        0.0653
     43 H          -4.9273    1.1269    0.9378 H       1  UNL1        0.0582
     44 H          -3.6028    3.4032   -0.8145 H       1  UNL1        0.0241
     45 H          -3.6452    3.3481    0.9641 H       1  UNL1        0.0241
     46 H          -2.0887    3.5073    0.1155 H       1  UNL1        0.0241
@<TRIPOS>BOND
     1     1     2    1
     2     1    26    1
     3     1    27    1
     4     1    28    1
     5     2     9    1
     6     2    15    1
     7     2     3    1
     8     3     4    1
     9     3    29    1
    10     3    30    1
    11     4     5    1
    12     4    31    1
    13     4    32    1
    14     5     6    1
    15     5    24    1
    16     5     7    1
    17     7     8    1
    18     7     9    1
    19     7    16    1
    20     9    10    1
    21     9    11    1
    22    11    12    1
    23    11    33    1
    24    11    34    1
    25    12    13    1
    26    12    35    1
    27    12    36    1
    28    13    14    2
    29    13    15    1
    30    16    17    1
    31    16    37    1
    32    16    38    1
    33    17    18    1
    34    17    39    1
    35    17    40    1
    36    18    24    1
    37    18    19    2
    38    19    20    1
    39    19    41    1
    40    20    21    2
    41    20    22    1
    42    22    23    2
    43    22    42    1
    44    23    24    1
    45    23    43    1
    46    24    25    1
    47    25    44    1
    48    25    45    1
    49    25    46    1
