@<TRIPOS>MOLECULE
ZINC11616251
 54 57 0 0 0
SMALL
GASTEIGER

@<TRIPOS>ATOM
      1 C           4.5368    1.4439    1.9200 C.3     1  UNL1       -0.0567
      2 C           3.4157    2.2440    1.2538 C.3     1  UNL1        0.0001
      3 C           3.9224    2.8416   -0.0430 C.3     1  UNL1       -0.0445
      4 C           5.1803    3.6632    0.2875 C.3     1  UNL1       -0.0488
      5 C           4.8677    4.7511    1.3174 C.3     1  UNL1       -0.0314
      6 H           5.7836    5.2842    1.5725 H       1  UNL1        0.0309
      7 C           4.2632    4.1335    2.5885 C.3     1  UNL1       -0.0340
      8 H           4.9639    3.4128    3.0100 H       1  UNL1        0.0307
      9 C           2.9913    3.4190    2.1772 C.3     1  UNL1       -0.0298
     10 H           2.3275    4.1013    1.6462 H       1  UNL1        0.0310
     11 C           2.2438    2.6799    3.2920 C.3     1  UNL1       -0.0467
     12 C           1.4161    1.6213    2.5128 C.3     1  UNL1       -0.0229
     13 C           2.1549    1.3908    1.1706 C.3     1  UNL1        0.0751
     14 C           1.2821    1.8470   -0.0003 C.3     1  UNL1       -0.0055
     15 C          -0.0126    1.0758    0.0080 C.2     1  UNL1       -0.0884
     16 C          -1.1558    1.7153    0.0169 C.2     1  UNL1       -0.1025
     17 O           2.4990    0.0117    1.0230 O.3     1  UNL1       -0.3877
     18 C           3.9759    5.2197    3.6193 C.3     1  UNL1       -0.0460
     19 C           2.9291    6.1939    3.0721 C.3     1  UNL1       -0.0312
     20 C           3.4302    6.7272    1.7402 C.2     1  UNL1       -0.0701
     21 C           3.4614    8.0161    1.5656 C.2     1  UNL1       -0.0845
     22 C           3.9390    8.6586    0.2946 C.3     1  UNL1       -0.0345
     23 C           3.7279    7.6805   -0.8656 C.3     1  UNL1       -0.0491
     24 C           4.4530    6.3765   -0.5342 C.3     1  UNL1       -0.0460
     25 C           3.8591    5.7301    0.7054 C.3     1  UNL1       -0.0168
     26 H           2.9815    5.1632    0.3947 H       1  UNL1        0.0348
     27 H           4.7615    0.5632    1.3184 H       1  UNL1        0.0236
     28 H           5.4283    2.0658    2.0009 H       1  UNL1        0.0236
     29 H           4.2192    1.1329    2.9152 H       1  UNL1        0.0236
     30 H           4.1737    2.0457   -0.7441 H       1  UNL1        0.0272
     31 H           3.1598    3.4896   -0.4750 H       1  UNL1        0.0272
     32 H           5.5532    4.1297   -0.6243 H       1  UNL1        0.0268
     33 H           5.9458    2.9992    0.6889 H       1  UNL1        0.0268
     34 H           2.9453    2.1967    3.9722 H       1  UNL1        0.0269
     35 H           1.5894    3.3616    3.8353 H       1  UNL1        0.0269
     36 H           0.4098    1.9964    2.3264 H       1  UNL1        0.0293
     37 H           1.3703    0.6912    3.0792 H       1  UNL1        0.0293
     38 H           1.8076    1.6648   -0.9377 H       1  UNL1        0.0335
     39 H           1.0713    2.9120    0.0970 H       1  UNL1        0.0335
     40 H           0.0021   -0.0041    0.0020 H       1  UNL1        0.0567
     41 H          -1.1705    2.7952    0.0228 H       1  UNL1        0.0532
     42 H          -2.0837    1.1627    0.0183 H       1  UNL1        0.0532
     43 H           1.7367   -0.5820    0.9849 H       1  UNL1        0.2102
     44 H           3.6002    4.7607    4.5338 H       1  UNL1        0.0271
     45 H           4.8953    5.7623    3.8394 H       1  UNL1        0.0271
     46 H           2.7932    7.0190    3.7713 H       1  UNL1        0.0310
     47 H           1.9818    5.6744    2.9276 H       1  UNL1        0.0310
     48 H           3.1288    8.6533    2.3717 H       1  UNL1        0.0572
     49 H           3.3713    9.5708    0.1110 H       1  UNL1        0.0307
     50 H           4.9989    8.8976    0.3823 H       1  UNL1        0.0307
     51 H           2.6629    7.4864   -0.9930 H       1  UNL1        0.0268
     52 H           4.1359    8.1053   -1.7828 H       1  UNL1        0.0268
     53 H           5.5079    6.5872   -0.3585 H       1  UNL1        0.0271
     54 H           4.3603    5.6904   -1.3761 H       1  UNL1        0.0271
@<TRIPOS>BOND
     1     1     2    1
     2     1    27    1
     3     1    28    1
     4     1    29    1
     5     2     9    1
     6     2    13    1
     7     2     3    1
     8     3     4    1
     9     3    30    1
    10     3    31    1
    11     4     5    1
    12     4    32    1
    13     4    33    1
    14     5     6    1
    15     5    25    1
    16     5     7    1
    17     7     8    1
    18     7     9    1
    19     7    18    1
    20     9    10    1
    21     9    11    1
    22    11    12    1
    23    11    34    1
    24    11    35    1
    25    12    13    1
    26    12    36    1
    27    12    37    1
    28    13    14    1
    29    13    17    1
    30    14    15    1
    31    14    38    1
    32    14    39    1
    33    15    16    2
    34    15    40    1
    35    16    41    1
    36    16    42    1
    37    17    43    1
    38    18    19    1
    39    18    44    1
    40    18    45    1
    41    19    20    1
    42    19    46    1
    43    19    47    1
    44    20    25    1
    45    20    21    2
    46    21    22    1
    47    21    48    1
    48    22    23    1
    49    22    49    1
    50    22    50    1
    51    23    24    1
    52    23    51    1
    53    23    52    1
    54    24    25    1
    55    24    53    1
    56    24    54    1
    57    25    26    1
