@<TRIPOS>MOLECULE
ZINC03830985
 45 46 0 0 0
SMALL
GASTEIGER

@<TRIPOS>ATOM
      1 C           0.1443    6.7698   -2.3338 C.3     1  UNL1        0.0730
      2 C           0.8991    5.6688   -3.0815 C.3     1  UNL1        0.1130
      3 H           0.5745    4.6940   -2.7175 H       1  UNL1        0.0647
      4 C           0.6074    5.7772   -4.5804 C.3     1  UNL1        0.1119
      5 H          -0.4567    5.6203   -4.7567 H       1  UNL1        0.0647
      6 C           1.4130    4.7102   -5.3279 C.3     1  UNL1        0.1141
      7 H           1.2533    4.8177   -6.4008 H       1  UNL1        0.0648
      8 C           2.9003    4.8933   -5.0104 C.3     1  UNL1        0.1341
      9 H           3.2348    5.8643   -5.3755 H       1  UNL1        0.0671
     10 C           3.1034    4.8190   -3.4948 C.3     1  UNL1        0.1884
     11 H           4.1538    4.9911   -3.2600 H       1  UNL1        0.0938
     12 O           2.3030    5.8174   -2.8585 O.3     1  UNL1       -0.3405
     13 O           2.7156    3.5264   -3.0248 O.3     1  UNL1       -0.3401
     14 C           3.2351    3.1970   -1.7350 C.3     1  UNL1        0.1184
     15 H           3.9381    3.9669   -1.4169 H       1  UNL1        0.0651
     16 C           3.9518    1.8459   -1.8019 C.3     1  UNL1        0.1134
     17 H           4.3825    1.6142   -0.8278 H       1  UNL1        0.0647
     18 O           3.0152    0.8287   -2.1629 O.3     1  UNL1       -0.3407
     19 C           1.9427    0.6664   -1.2326 C.3     1  UNL1        0.1854
     20 H           2.3471    0.4191   -0.2511 H       1  UNL1        0.0935
     21 C           1.1452    1.9701   -1.1428 C.3     1  UNL1        0.1339
     22 H           0.3537    1.8626   -0.4012 H       1  UNL1        0.0671
     23 C           2.0847    3.1066   -0.7276 C.3     1  UNL1        0.1144
     24 H           2.4849    2.9043    0.2658 H       1  UNL1        0.0648
     25 O           1.3644    4.3407   -0.7124 O.3     1  UNL1       -0.3864
     26 O           0.5704    2.2671   -2.4169 O.3     1  UNL1       -0.3841
     27 O           1.0845   -0.3877   -1.6737 O.3     1  UNL1       -0.3649
     28 C           5.0648    1.9098   -2.8498 C.3     1  UNL1        0.0730
     29 O           5.8070    0.6888   -2.8314 O.3     1  UNL1       -0.3924
     30 O           3.6549    3.8587   -5.6446 O.3     1  UNL1       -0.3841
     31 O           0.9909    3.4111   -4.9079 O.3     1  UNL1       -0.3864
     32 O           0.9828    7.0741   -5.0486 O.3     1  UNL1       -0.3865
     33 O           0.2903    6.5756   -0.9256 O.3     1  UNL1       -0.3924
     34 H           0.5519    7.7421   -2.6107 H       1  UNL1        0.0584
     35 H          -0.9123    6.7300   -2.5984 H       1  UNL1        0.0584
     36 H           0.6653    4.3799   -0.0456 H       1  UNL1        0.2100
     37 H          -0.0329    1.5861   -2.7445 H       1  UNL1        0.2101
     38 H           1.5243   -1.2451   -1.7545 H       1  UNL1        0.2126
     39 H           4.6262    2.0535   -3.8373 H       1  UNL1        0.0584
     40 H           5.7300    2.7429   -2.6229 H       1  UNL1        0.0584
     41 H           6.5307    0.6588   -3.4721 H       1  UNL1        0.2095
     42 H           4.6067    3.9100   -5.4819 H       1  UNL1        0.2101
     43 H           1.4651    2.6857   -5.3369 H       1  UNL1        0.2100
     44 H           0.8290    7.2109   -5.9934 H       1  UNL1        0.2100
     45 H          -0.1636    7.2388   -0.3879 H       1  UNL1        0.2095
@<TRIPOS>BOND
     1     1     2    1
     2     1    33    1
     3     1    34    1
     4     1    35    1
     5     2     3    1
     6     2    12    1
     7     2     4    1
     8     4     5    1
     9     4     6    1
    10     4    32    1
    11     6     7    1
    12     6     8    1
    13     6    31    1
    14     8     9    1
    15     8    10    1
    16     8    30    1
    17    10    11    1
    18    10    12    1
    19    10    13    1
    20    13    14    1
    21    14    15    1
    22    14    23    1
    23    14    16    1
    24    16    17    1
    25    16    18    1
    26    16    28    1
    27    18    19    1
    28    19    20    1
    29    19    21    1
    30    19    27    1
    31    21    22    1
    32    21    23    1
    33    21    26    1
    34    23    24    1
    35    23    25    1
    36    25    36    1
    37    26    37    1
    38    27    38    1
    39    28    29    1
    40    28    39    1
    41    28    40    1
    42    29    41    1
    43    30    42    1
    44    31    43    1
    45    32    44    1
    46    33    45    1
