@<TRIPOS>MOLECULE
ZINC02014722
 44 45 0 0 0
SMALL
GASTEIGER

@<TRIPOS>ATOM
      1 C           1.0044    2.2389    0.9041 C.3     1  UNL1       -0.0306
      2 C          -0.3668    1.6268    0.6107 C.3     1  UNL1        0.0897
      3 O          -0.2554    0.1793    0.5857 O.3     1  UNL1       -0.4641
      4 C          -1.3780   -0.5141    0.3393 C.2     1  UNL1        0.3236
      5 O          -2.4192    0.0691    0.1507 O.2     1  UNL1       -0.2496
      6 C          -1.3396   -2.0200    0.2979 C.3     1  UNL1        0.1387
      7 C          -0.3738   -2.4812   -0.8010 C.3     1  UNL1       -0.0241
      8 C          -0.7557   -1.7802   -2.1065 C.3     1  UNL1       -0.0330
      9 C          -2.2287   -1.9209   -2.3570 C.2     1  UNL1       -0.0826
     10 C          -3.0897   -2.2564   -1.4505 C.2     1  UNL1       -0.0389
     11 C          -2.7340   -2.5614   -0.0249 C.3     1  UNL1        0.0176
     12 H          -3.4644   -2.0962    0.6372 H       1  UNL1        0.0912
     13 C          -4.0232   -4.4484    0.7750 C.3     1  UNL1       -0.0427
     14 C          -2.4883   -4.7285   -1.0765 C.3     1  UNL1       -0.0427
     15 C          -0.8811   -2.5519    1.6313 C.ar    1  UNL1       -0.0249
     16 C          -1.5357   -2.1736    2.7885 C.ar    1  UNL1       -0.0573
     17 C          -1.1178   -2.6649    4.0111 C.ar    1  UNL1       -0.0615
     18 C          -0.0393   -3.5271    4.0775 C.ar    1  UNL1       -0.0617
     19 C           0.6183   -3.9017    2.9207 C.ar    1  UNL1       -0.0615
     20 C           0.1977   -3.4137    1.6977 C.ar    1  UNL1       -0.0573
     21 H           1.3608    1.8852    1.8715 H       1  UNL1        0.0262
     22 H           1.7086    1.9420    0.1268 H       1  UNL1        0.0262
     23 H           0.9208    3.3255    0.9228 H       1  UNL1        0.0262
     24 H          -0.7231    1.9805   -0.3568 H       1  UNL1        0.0694
     25 H          -1.0710    1.9237    1.3879 H       1  UNL1        0.0694
     26 H           0.6470   -2.2147   -0.5271 H       1  UNL1        0.0284
     27 H          -0.4495   -3.5614   -0.9257 H       1  UNL1        0.0284
     28 H          -0.5004   -0.7228   -2.0369 H       1  UNL1        0.0308
     29 H          -0.2061   -2.2309   -2.9328 H       1  UNL1        0.0308
     30 H          -2.5930   -1.7300   -3.3556 H       1  UNL1        0.0571
     31 H          -4.1286   -2.3212   -1.7383 H       1  UNL1        0.0625
     32 H          -4.8446   -4.1796    0.1108 H       1  UNL1        0.0778
     33 H          -4.0092   -5.5291    0.9166 H       1  UNL1        0.0778
     34 H          -4.1596   -3.9575    1.7386 H       1  UNL1        0.0778
     35 H          -1.4647   -4.5345   -1.3969 H       1  UNL1        0.0778
     36 H          -2.6241   -5.7990   -0.9227 H       1  UNL1        0.0778
     37 H          -3.1810   -4.3809   -1.8430 H       1  UNL1        0.0778
     38 H          -2.3758   -1.4968    2.7370 H       1  UNL1        0.0621
     39 H          -1.6319   -2.3725    4.9149 H       1  UNL1        0.0618
     40 H           0.2893   -3.9083    5.0331 H       1  UNL1        0.0618
     41 H           1.4609   -4.5752    2.9726 H       1  UNL1        0.0618
     42 H           0.7117   -3.7061    0.7940 H       1  UNL1        0.0621
     43 N          -2.7303   -4.0224    0.1992 N.4     1  UNL1        0.2370
     44 H          -1.9784   -4.2568    0.8580 H       1  UNL1        0.2034
@<TRIPOS>UNITY_ATOM_ATTR
43 1
charge 1
@<TRIPOS>BOND
     1     1     2    1
     2     1    21    1
     3     1    22    1
     4     1    23    1
     5     2     3    1
     6     2    24    1
     7     2    25    1
     8     3     4    1
     9     4     5    2
    10     4     6    1
    11     6    11    1
    12     6     7    1
    13     6    15    1
    14     7     8    1
    15     7    26    1
    16     7    27    1
    17     8     9    1
    18     8    28    1
    19     8    29    1
    20     9    10    2
    21     9    30    1
    22    10    11    1
    23    10    31    1
    24    11    12    1
    25    11    43    1
    26    13    32    1
    27    13    33    1
    28    13    34    1
    29    13    43    1
    30    14    35    1
    31    14    36    1
    32    14    37    1
    33    14    43    1
    34    15    20   ar
    35    15    16   ar
    36    16    17   ar
    37    16    38    1
    38    17    18   ar
    39    17    39    1
    40    18    19   ar
    41    18    40    1
    42    19    20   ar
    43    19    41    1
    44    20    42    1
    45    43    44    1
