@<TRIPOS>MOLECULE
ZINC00601299
 57 60 0 0 0
SMALL
GASTEIGER

@<TRIPOS>ATOM
      1 C          -2.5139    0.9796    0.0192 C.3     1  UNL1       -0.0397
      2 C          -1.2192    1.7508    0.0173 C.ar    1  UNL1       -0.0500
      3 C          -0.0126    1.0758    0.0080 C.ar    1  UNL1       -0.0588
      4 C           1.1748    1.7831    0.0004 C.ar    1  UNL1       -0.0611
      5 C           1.1561    3.1655    0.0076 C.ar    1  UNL1       -0.0535
      6 C          -0.0501    3.8402    0.0223 C.ar    1  UNL1       -0.0026
      7 C          -1.2379    3.1327    0.0299 C.ar    1  UNL1       -0.0506
      8 C          -0.0705    5.3471    0.0297 C.3     1  UNL1       -0.0055
      9 C           1.1629    5.5172   -2.0475 C.3     1  UNL1        0.0098
     10 C           1.0711    5.9794   -3.5036 C.3     1  UNL1        0.0104
     11 C          -0.4405    7.7517   -2.8458 C.3     1  UNL1        0.0104
     12 C          -0.3487    7.2895   -1.3897 C.3     1  UNL1        0.0098
     13 C           0.7929    7.9218   -4.9230 C.3     1  UNL1        0.0313
     14 H          -0.0353    7.4620   -5.4622 H       1  UNL1        0.0958
     15 C           2.0914    7.5695   -5.6018 C.ar    1  UNL1        0.0048
     16 C           3.2838    7.6759   -4.9106 C.ar    1  UNL1       -0.0529
     17 C           4.4745    7.3486   -5.5319 C.ar    1  UNL1       -0.0613
     18 C           4.4738    6.9241   -6.8475 C.ar    1  UNL1       -0.0617
     19 C           3.2818    6.8223   -7.5402 C.ar    1  UNL1       -0.0613
     20 C           2.0907    7.1455   -6.9175 C.ar    1  UNL1       -0.0529
     21 C           0.6191    9.4187   -4.9170 C.ar    1  UNL1        0.0049
     22 C           1.2750   10.1866   -3.9730 C.ar    1  UNL1       -0.0515
     23 C           1.1204   11.5601   -3.9706 C.ar    1  UNL1       -0.0429
     24 C           0.3002   12.1653   -4.9060 C.ar    1  UNL1        0.0410
     25 C          -0.3604   11.3957   -5.8470 C.ar    1  UNL1       -0.0429
     26 C          -0.2006   10.0228   -5.8520 C.ar    1  UNL1       -0.0515
     27 CL          0.0996   13.8897   -4.8988 Cl      1  UNL1       -0.0835
     28 H          -2.8212    0.7881    1.0473 H       1  UNL1        0.0278
     29 H          -3.2839    1.5611   -0.4878 H       1  UNL1        0.0278
     30 H          -2.3731    0.0319   -0.5005 H       1  UNL1        0.0278
     31 H           0.0021   -0.0041    0.0020 H       1  UNL1        0.0620
     32 H           2.1173    1.2559   -0.0114 H       1  UNL1        0.0618
     33 H           2.0839    3.7182    0.0014 H       1  UNL1        0.0622
     34 H          -2.1804    3.6599    0.0410 H       1  UNL1        0.0625
     35 H          -0.9604    5.6958    0.5537 H       1  UNL1        0.0867
     36 H           0.8193    5.7200    0.5368 H       1  UNL1        0.0867
     37 H           1.9934    6.0245   -1.5566 H       1  UNL1        0.0868
     38 H           1.3256    4.4398   -2.0175 H       1  UNL1        0.0868
     39 H           0.2578    5.4519   -4.0020 H       1  UNL1        0.0868
     40 H           2.0104    5.7646   -4.0132 H       1  UNL1        0.0868
     41 H          -1.2710    7.2443   -3.3368 H       1  UNL1        0.0868
     42 H          -0.6032    8.8290   -2.8758 H       1  UNL1        0.0868
     43 H          -1.2881    7.5042   -0.8801 H       1  UNL1        0.0868
     44 H           0.4644    7.8169   -0.8910 H       1  UNL1        0.0868
     45 H           3.2848    8.0115   -3.8840 H       1  UNL1        0.0622
     46 H           5.4057    7.4278   -4.9906 H       1  UNL1        0.0618
     47 H           5.4043    6.6717   -7.3340 H       1  UNL1        0.0618
     48 H           3.2813    6.4907   -8.5680 H       1  UNL1        0.0618
     49 H           1.1596    7.0663   -7.4589 H       1  UNL1        0.0622
     50 H           1.9118    9.7137   -3.2401 H       1  UNL1        0.0623
     51 H           1.6364   12.1604   -3.2358 H       1  UNL1        0.0632
     52 H          -1.0011   11.8675   -6.5773 H       1  UNL1        0.0632
     53 H          -0.7165    9.4219   -6.5863 H       1  UNL1        0.0623
     54 N          -0.1112    5.8309   -1.3668 N.4     1  UNL1        0.2460
     55 H          -0.8783    5.3600   -1.8608 H       1  UNL1        0.2041
     56 N           0.8336    7.4380   -3.5265 N.4     1  UNL1        0.2514
     57 H           1.6007    7.9088   -3.0325 H       1  UNL1        0.2048
@<TRIPOS>UNITY_ATOM_ATTR
54 1
charge 1
56 1
charge 1
@<TRIPOS>BOND
     1     1     2    1
     2     1    28    1
     3     1    29    1
     4     1    30    1
     5     2     7   ar
     6     2     3   ar
     7     3     4   ar
     8     3    31    1
     9     4     5   ar
    10     4    32    1
    11     5     6   ar
    12     5    33    1
    13     6     7   ar
    14     6     8    1
    15     7    34    1
    16     8    35    1
    17     8    36    1
    18     8    54    1
    19     9    10    1
    20     9    37    1
    21     9    38    1
    22     9    54    1
    23    10    39    1
    24    10    40    1
    25    10    56    1
    26    11    12    1
    27    11    41    1
    28    11    42    1
    29    11    56    1
    30    12    43    1
    31    12    44    1
    32    12    54    1
    33    13    14    1
    34    13    15    1
    35    13    21    1
    36    13    56    1
    37    15    20   ar
    38    15    16   ar
    39    16    17   ar
    40    16    45    1
    41    17    18   ar
    42    17    46    1
    43    18    19   ar
    44    18    47    1
    45    19    20   ar
    46    19    48    1
    47    20    49    1
    48    21    26   ar
    49    21    22   ar
    50    22    23   ar
    51    22    50    1
    52    23    24   ar
    53    23    51    1
    54    24    25   ar
    55    24    27    1
    56    25    26   ar
    57    25    52    1
    58    26    53    1
    59    54    55    1
    60    56    57    1
