@<TRIPOS>MOLECULE
ZINC02020528
 59 62 0 0 0
SMALL
GASTEIGER

@<TRIPOS>ATOM
      1 C           5.5440    3.3048    5.4201 C.3     1  UNL1       -0.0493
      2 C           6.0784    1.9790    5.9657 C.3     1  UNL1        0.0119
      3 N           6.0623    0.9714    4.9024 N.am    1  UNL1       -0.3004
      4 C           4.9301    0.0803    4.6230 C.3     1  UNL1        0.0193
      5 C           5.1807   -0.4713    3.2019 C.3     1  UNL1        0.0016
      6 H           4.8598   -1.5100    3.1239 H       1  UNL1        0.0334
      7 C           6.7183   -0.3568    3.0859 C.3     1  UNL1        0.1012
      8 C           7.0828    0.7438    4.0576 C.2     1  UNL1        0.2308
      9 O           8.1420    1.3345    4.0727 O.2     1  UNL1       -0.2743
     10 C           7.3753   -1.6527    3.4861 C.ar    1  UNL1       -0.0278
     11 C           6.9722   -2.8404    2.9049 C.ar    1  UNL1       -0.0572
     12 C           7.5776   -4.0285    3.2692 C.ar    1  UNL1       -0.0615
     13 C           8.5804   -4.0300    4.2206 C.ar    1  UNL1       -0.0617
     14 C           8.9799   -2.8430    4.8056 C.ar    1  UNL1       -0.0615
     15 C           8.3772   -1.6543    4.4385 C.ar    1  UNL1       -0.0572
     16 C           7.1144    0.0256    1.6830 C.ar    1  UNL1       -0.0278
     17 C           7.6796    1.2630    1.4374 C.ar    1  UNL1       -0.0572
     18 C           8.0465    1.6122    0.1512 C.ar    1  UNL1       -0.0615
     19 C           7.8406    0.7273   -0.8906 C.ar    1  UNL1       -0.0617
     20 C           7.2706   -0.5081   -0.6458 C.ar    1  UNL1       -0.0615
     21 C           6.9073   -0.8588    0.6410 C.ar    1  UNL1       -0.0572
     22 C           4.4862    0.3940    2.1484 C.3     1  UNL1       -0.0067
     23 C           2.9737    0.1763    2.2260 C.3     1  UNL1       -0.0314
     24 C           0.8850    0.6530    1.0959 C.3     1  UNL1       -0.0078
     25 C           0.2443    1.4990   -0.0076 C.3     1  UNL1        0.0878
     26 O           0.4340    2.8848    0.2902 O.3     1  UNL1       -0.3693
     27 C           1.8074    3.2647    0.4121 C.3     1  UNL1        0.0878
     28 C           2.4640    2.4366    1.5199 C.3     1  UNL1       -0.0078
     29 H           5.5560    4.0545    6.2112 H       1  UNL1        0.0245
     30 H           6.1729    3.6378    4.5944 H       1  UNL1        0.0245
     31 H           4.5225    3.1665    5.0659 H       1  UNL1        0.0245
     32 H           5.4496    1.6460    6.7914 H       1  UNL1        0.0462
     33 H           7.1000    2.1172    6.3198 H       1  UNL1        0.0462
     34 H           3.9946    0.6389    4.6513 H       1  UNL1        0.0468
     35 H           4.9051   -0.7356    5.3453 H       1  UNL1        0.0468
     36 H           6.1864   -2.8396    2.1640 H       1  UNL1        0.0621
     37 H           7.2652   -4.9560    2.8124 H       1  UNL1        0.0618
     38 H           9.0516   -4.9587    4.5071 H       1  UNL1        0.0618
     39 H           9.7632   -2.8442    5.5492 H       1  UNL1        0.0618
     40 H           8.6893   -0.7269    4.8956 H       1  UNL1        0.0621
     41 H           7.8373    1.9557    2.2509 H       1  UNL1        0.0621
     42 H           8.4914    2.5775   -0.0401 H       1  UNL1        0.0618
     43 H           8.1248    1.0012   -1.8959 H       1  UNL1        0.0618
     44 H           7.1095   -1.1993   -1.4598 H       1  UNL1        0.0618
     45 H           6.4620   -1.8240    0.8323 H       1  UNL1        0.0621
     46 H           4.8429    0.1155    1.1568 H       1  UNL1        0.0320
     47 H           4.7121    1.4440    2.3342 H       1  UNL1        0.0320
     48 H           2.6170    0.4549    3.2176 H       1  UNL1        0.0814
     49 H           2.7477   -0.8737    2.0403 H       1  UNL1        0.0814
     50 H           0.3812    0.8477    2.0427 H       1  UNL1        0.0837
     51 H           0.7921   -0.4036    0.8448 H       1  UNL1        0.0837
     52 H          -0.8224    1.2808   -0.0605 H       1  UNL1        0.0613
     53 H           0.7115    1.2649   -0.9641 H       1  UNL1        0.0613
     54 H           2.3208    3.0818   -0.5319 H       1  UNL1        0.0613
     55 H           1.8713    4.3235    0.6628 H       1  UNL1        0.0613
     56 H           1.9854    2.6598    2.4734 H       1  UNL1        0.0837
     57 H           3.5244    2.6820    1.5778 H       1  UNL1        0.0837
     58 N           2.3177    1.0031    1.1899 N.4     1  UNL1        0.2385
     59 H           2.7662    0.8211    0.2844 H       1  UNL1        0.2035
@<TRIPOS>UNITY_ATOM_ATTR
58 1
charge 1
@<TRIPOS>BOND
     1     1     2    1
     2     1    29    1
     3     1    30    1
     4     1    31    1
     5     2     3    1
     6     2    32    1
     7     2    33    1
     8     3     8   am
     9     3     4    1
    10     4     5    1
    11     4    34    1
    12     4    35    1
    13     5     6    1
    14     5     7    1
    15     5    22    1
    16     7     8    1
    17     7    10    1
    18     7    16    1
    19     8     9    2
    20    10    15   ar
    21    10    11   ar
    22    11    12   ar
    23    11    36    1
    24    12    13   ar
    25    12    37    1
    26    13    14   ar
    27    13    38    1
    28    14    15   ar
    29    14    39    1
    30    15    40    1
    31    16    21   ar
    32    16    17   ar
    33    17    18   ar
    34    17    41    1
    35    18    19   ar
    36    18    42    1
    37    19    20   ar
    38    19    43    1
    39    20    21   ar
    40    20    44    1
    41    21    45    1
    42    22    23    1
    43    22    46    1
    44    22    47    1
    45    23    48    1
    46    23    49    1
    47    23    58    1
    48    24    25    1
    49    24    50    1
    50    24    51    1
    51    24    58    1
    52    25    26    1
    53    25    52    1
    54    25    53    1
    55    26    27    1
    56    27    28    1
    57    27    54    1
    58    27    55    1
    59    28    56    1
    60    28    57    1
    61    28    58    1
    62    58    59    1
