@<TRIPOS>MOLECULE
ZINC03830907
 50 53 0 0 0
SMALL
GASTEIGER

@<TRIPOS>ATOM
      1 C          -2.6209    7.2967   -1.0814 C.3     1  UNL1       -0.0486
      2 C          -2.7841    7.5501    0.4186 C.3     1  UNL1        0.0366
      3 CA         -1.4160    7.4948    1.1629 C.3     1  UNL1        0.0807
      4 HA         -1.5187    7.9601    2.1432 H       1  UNL1        0.0576
      5 N          -0.9907    6.1049    1.3278 N.am    1  UNL1       -0.2761
      6 C          -2.0836    5.1374    1.5940 C.3     1  UNL1        0.1007
      7 H          -2.0696    4.5932    2.5383 H       1  UNL1        0.0640
      8 S          -3.6031    6.1252    1.2657 S.3     1  UNL1       -0.1275
      9 CA         -1.5885    4.3799    0.3535 C.3     1  UNL1        0.1355
     10 HA         -2.2954    4.3897   -0.4762 H       1  UNL1        0.0626
     11 C          -0.5078    5.4356    0.2467 C.2     1  UNL1        0.2405
     12 O           0.4245    5.6142   -0.5081 O.2     1  UNL1       -0.2734
     13 N          -1.0748    3.0401    0.6487 N.am    1  UNL1       -0.2396
     14 C          -0.0375    2.7679    1.4663 C.2     1  UNL1        0.2734
     15 O           0.6234    3.5869    2.0691 O.2     1  UNL1       -0.2688
     16 CA          0.1628    1.2686    1.5051 C.3     1  UNL1        0.0831
     17 HA          0.3245    0.9319    2.5291 H       1  UNL1        0.1004
     18 C          -1.6098    1.7884    0.0990 C.3     1  UNL1        0.0568
     19 C          -1.1143    1.5890   -1.3348 C.3     1  UNL1       -0.0008
     20 C          -3.1393    1.8105    0.1283 C.3     1  UNL1       -0.0008
     21 C           1.3263    0.8719    0.6333 C.ar    1  UNL1        0.0092
     22 C           1.4149   -0.4178    0.1437 C.ar    1  UNL1       -0.0528
     23 C           2.4796   -0.7804   -0.6599 C.ar    1  UNL1       -0.0613
     24 C           3.4610    0.1440   -0.9656 C.ar    1  UNL1       -0.0617
     25 C           3.3753    1.4321   -0.4713 C.ar    1  UNL1       -0.0613
     26 C           2.3078    1.7961    0.3279 C.ar    1  UNL1       -0.0528
     27 C          -0.3810    8.2425    0.3625 C.2     1  UNL1        0.0635
     28 O           0.6922    7.7347    0.1384 O.co2   1  UNL1       -0.5478
     29 C          -3.5205    8.8644    0.6859 C.3     1  UNL1       -0.0486
     30 H          -3.6029    7.1713   -1.5377 H       1  UNL1        0.0244
     31 H          -2.1128    8.1449   -1.5401 H       1  UNL1        0.0244
     32 H          -2.0309    6.3932   -1.2352 H       1  UNL1        0.0244
     33 H          -1.3943    0.5941   -1.6809 H       1  UNL1        0.0305
     34 H          -0.0294    1.6912   -1.3617 H       1  UNL1        0.0305
     35 H          -1.5661    2.3398   -1.9830 H       1  UNL1        0.0305
     36 H          -3.5239    0.8701   -0.2664 H       1  UNL1        0.0305
     37 H          -3.4812    1.9405    1.1551 H       1  UNL1        0.0305
     38 H          -3.5025    2.6367   -0.4829 H       1  UNL1        0.0305
     39 H           0.6503   -1.1411    0.3860 H       1  UNL1        0.0622
     40 H           2.5468   -1.7868   -1.0457 H       1  UNL1        0.0618
     41 H           4.2948   -0.1403   -1.5904 H       1  UNL1        0.0618
     42 H           4.1422    2.1542   -0.7099 H       1  UNL1        0.0618
     43 H           2.2409    2.8025    0.7141 H       1  UNL1        0.0622
     44 H          -3.5551    9.0495    1.7595 H       1  UNL1        0.0244
     45 H          -2.9949    9.6822    0.1929 H       1  UNL1        0.0244
     46 H          -4.5361    8.7977    0.2958 H       1  UNL1        0.0244
     47 N          -1.0816    0.7438    0.9616 N.4     1  UNL1        0.2567
     48 H1         -1.7433    0.5371    1.7190 H       1  UNL1        0.2047
     49 H2         -0.9031   -0.1103    0.4204 H       1  UNL1        0.2047
     50 OXT        -0.6514    9.4727   -0.1016 O.co2   1  UNL1       -0.5478
@<TRIPOS>UNITY_ATOM_ATTR
47 1
charge 1
50 1
charge -1
@<TRIPOS>BOND
     1     1     2    1
     2     1    30    1
     3     1    31    1
     4     1    32    1
     5     2     8    1
     6     2     3    1
     7     2    29    1
     8     3     4    1
     9     3     5    1
    10     3    27    1
    11     5    11   am
    12     5     6    1
    13     6     7    1
    14     6     8    1
    15     6     9    1
    16     9    10    1
    17     9    11    1
    18     9    13    1
    19    11    12    2
    20    13    18    1
    21    13    14   am
    22    14    15    2
    23    14    16    1
    24    16    17    1
    25    16    21    1
    26    16    47    1
    27    18    19    1
    28    18    20    1
    29    18    47    1
    30    19    33    1
    31    19    34    1
    32    19    35    1
    33    20    36    1
    34    20    37    1
    35    20    38    1
    36    21    26   ar
    37    21    22   ar
    38    22    23   ar
    39    22    39    1
    40    23    24   ar
    41    23    40    1
    42    24    25   ar
    43    24    41    1
    44    25    26   ar
    45    25    42    1
    46    26    43    1
    47    27    28   ar
    48    27    50   ar
    49    29    44    1
    50    29    45    1
    51    29    46    1
    52    47    48    1
    53    47    49    1
