@<TRIPOS>MOLECULE
ZINC11616325
 46 50 0 0 0
SMALL
GASTEIGER

@<TRIPOS>ATOM
      1 C           2.2789    1.4420    3.5460 C.3     1  UNL1       -0.0428
      2 C           1.5003    3.2547    2.1457 C.3     1  UNL1       -0.0309
      3 C           0.6715    3.6032    0.8994 C.3     1  UNL1        0.0012
      4 C          -0.7298    3.0622    1.1041 C.3     1  UNL1        0.0516
      5 C          -1.4053    3.6705    2.2775 C.ar    1  UNL1        0.0117
      6 C          -1.3460    3.1712    3.5569 C.ar    1  UNL1       -0.0345
      7 C          -2.0415    3.9278    4.4797 C.ar    1  UNL1       -0.0544
      8 C          -2.7574    5.0390    4.0620 C.ar    1  UNL1       -0.0160
      9 C          -2.8637    5.4648    2.7366 C.ar    1  UNL1        0.1618
     10 C          -2.1651    4.7251    1.7827 C.ar    1  UNL1        0.1665
     11 O          -2.0835    4.7540    0.4150 O.3     1  UNL1       -0.4814
     12 C          -1.7110    3.4535   -0.0130 C.3     1  UNL1        0.1363
     13 H          -2.5857    2.8073    0.0616 H       1  UNL1        0.0768
     14 C          -0.9704    3.1177   -1.2798 C.3     1  UNL1        0.0928
     15 H          -0.0252    3.6596   -1.3120 H       1  UNL1        0.0630
     16 C          -0.7043    1.5980   -1.2638 C.3     1  UNL1       -0.0229
     17 C           0.0255    1.0931   -0.0172 C.3     1  UNL1       -0.0417
     18 C          -0.7020    1.5394    1.2582 C.3     1  UNL1        0.0158
     19 H          -1.7077    1.1220    1.3073 H       1  UNL1        0.0365
     20 C           0.0792    1.3066    2.5480 C.3     1  UNL1       -0.0132
     21 H           0.1520    0.2302    2.7034 H       1  UNL1        0.0857
     22 C          -0.5758    1.9137    3.7862 C.3     1  UNL1        0.0162
     23 O          -1.7663    3.4603   -2.4161 O.3     1  UNL1       -0.3881
     24 O          -3.6113    6.5476    2.3928 O.3     1  UNL1       -0.4914
     25 C          -4.2857    7.2326    3.4502 C.3     1  UNL1        0.0790
     26 H           2.2158    0.3665    3.7111 H       1  UNL1        0.0778
     27 H           3.3148    1.7196    3.3510 H       1  UNL1        0.0778
     28 H           1.9228    1.9672    4.4323 H       1  UNL1        0.0778
     29 H           1.0969    3.7840    3.0089 H       1  UNL1        0.0815
     30 H           2.5353    3.5579    1.9879 H       1  UNL1        0.0815
     31 H           1.1187    3.1437    0.0179 H       1  UNL1        0.0327
     32 H           0.6338    4.6851    0.7726 H       1  UNL1        0.0327
     33 H          -2.0260    3.6559    5.5248 H       1  UNL1        0.0622
     34 H          -3.2725    5.6157    4.8160 H       1  UNL1        0.0655
     35 H          -0.1082    1.3426   -2.1400 H       1  UNL1        0.0291
     36 H          -1.6614    1.0814   -1.3365 H       1  UNL1        0.0291
     37 H           0.0685    0.0043   -0.0431 H       1  UNL1        0.0271
     38 H           1.0400    1.4918   -0.0094 H       1  UNL1        0.0271
     39 H          -1.2513    1.1725    4.2133 H       1  UNL1        0.0368
     40 H           0.2044    2.1198    4.5189 H       1  UNL1        0.0368
     41 H          -1.3583    3.2372   -3.2639 H       1  UNL1        0.2099
     42 H          -4.8440    8.0741    3.0400 H       1  UNL1        0.0660
     43 H          -4.9733    6.5476    3.9464 H       1  UNL1        0.0660
     44 H          -3.5542    7.5985    4.1707 H       1  UNL1        0.0660
     45 N           1.4698    1.7874    2.3637 N.4     1  UNL1        0.2357
     46 H           1.8708    1.3244    1.5397 H       1  UNL1        0.2033
@<TRIPOS>UNITY_ATOM_ATTR
45 1
charge 1
@<TRIPOS>BOND
     1     1    26    1
     2     1    27    1
     3     1    28    1
     4     1    45    1
     5     2     3    1
     6     2    29    1
     7     2    30    1
     8     2    45    1
     9     3     4    1
    10     3    31    1
    11     3    32    1
    12     4    12    1
    13     4    18    1
    14     4     5    1
    15     5    10   ar
    16     5     6   ar
    17     6    22    1
    18     6     7   ar
    19     7     8   ar
    20     7    33    1
    21     8     9   ar
    22     8    34    1
    23     9    10   ar
    24     9    24    1
    25    10    11    1
    26    11    12    1
    27    12    13    1
    28    12    14    1
    29    14    15    1
    30    14    16    1
    31    14    23    1
    32    16    17    1
    33    16    35    1
    34    16    36    1
    35    17    18    1
    36    17    37    1
    37    17    38    1
    38    18    19    1
    39    18    20    1
    40    20    21    1
    41    20    22    1
    42    20    45    1
    43    22    39    1
    44    22    40    1
    45    23    41    1
    46    24    25    1
    47    25    42    1
    48    25    43    1
    49    25    44    1
    50    45    46    1
