@<TRIPOS>MOLECULE
ZINC03830381
 61 61 0 0 0
SMALL
GASTEIGER

@<TRIPOS>ATOM
      1 C         -11.6173   -3.4286   -3.1906 C.3     1  UNL1       -0.0653
      2 C         -10.3870   -2.5441   -3.4025 C.3     1  UNL1       -0.0559
      3 C          -9.2720   -2.9851   -2.4522 C.3     1  UNL1       -0.0532
      4 C          -8.0417   -2.1005   -2.6641 C.3     1  UNL1       -0.0502
      5 C          -6.9267   -2.5415   -1.7138 C.3     1  UNL1       -0.0206
      6 C          -5.6964   -1.6570   -1.9257 C.3     1  UNL1        0.0814
      7 C          -6.0617   -0.1987   -1.6415 C.3     1  UNL1       -0.0324
      8 C          -4.5981   -2.0913   -0.9897 C.2     1  UNL1       -0.0567
      9 C          -3.4505   -2.5002   -1.4713 C.2     1  UNL1       -0.0794
     10 C          -2.3523   -2.9345   -0.5353 C.3     1  UNL1        0.0087
     11 H          -2.6921   -2.8906    0.4995 H       1  UNL1        0.0372
     12 C          -1.8731   -4.3645   -0.8883 C.3     1  UNL1        0.0641
     13 H          -1.8524   -4.5093   -1.9684 H       1  UNL1        0.0600
     14 C          -0.4398   -4.3992   -0.3022 C.3     1  UNL1        0.0001
     15 C           0.1173   -2.9880   -0.5814 C.3     1  UNL1        0.0613
     16 H           0.6996   -2.9912   -1.5028 H       1  UNL1        0.0597
     17 C          -1.0986   -2.0567   -0.7296 C.3     1  UNL1       -0.0029
     18 H          -1.1064   -1.6080   -1.7229 H       1  UNL1        0.0335
     19 C          -1.0542   -0.9626    0.3390 C.3     1  UNL1       -0.0290
     20 C           0.1253   -0.0598    0.0847 C.2     1  UNL1       -0.0876
     21 C          -0.0476    1.2361    0.0016 C.2     1  UNL1       -0.0879
     22 C          -1.3913    1.8390    0.3212 C.3     1  UNL1       -0.0344
     23 C          -1.2185    2.9474    1.3615 C.3     1  UNL1       -0.0445
     24 C          -2.5827    3.5595    1.6860 C.3     1  UNL1       -0.0129
     25 C          -2.4126    4.6513    2.7107 C.2     1  UNL1        0.0418
     26 O          -1.3130    4.9130    3.1376 O.co2   1  UNL1       -0.5498
     27 O           0.9325   -2.5586    0.5109 O.3     1  UNL1       -0.3914
     28 O          -2.7009   -5.3455   -0.2602 O.3     1  UNL1       -0.3911
     29 O          -5.2476   -1.7810   -3.2767 O.3     1  UNL1       -0.3848
     30 H         -11.9596   -3.3340   -2.1601 H       1  UNL1        0.0230
     31 H         -12.4116   -3.1144   -3.8676 H       1  UNL1        0.0230
     32 H         -11.3570   -4.4675   -3.3931 H       1  UNL1        0.0230
     33 H         -10.6472   -1.5051   -3.2000 H       1  UNL1        0.0263
     34 H         -10.0447   -2.6387   -4.4330 H       1  UNL1        0.0263
     35 H          -9.0117   -4.0240   -2.6547 H       1  UNL1        0.0265
     36 H          -9.6143   -2.8905   -1.4217 H       1  UNL1        0.0265
     37 H          -8.3019   -1.0616   -2.4616 H       1  UNL1        0.0266
     38 H          -7.6994   -2.1951   -3.6946 H       1  UNL1        0.0266
     39 H          -6.6664   -3.5804   -1.9163 H       1  UNL1        0.0296
     40 H          -7.2690   -2.4469   -0.6833 H       1  UNL1        0.0296
     41 H          -5.1852    0.4315   -1.7925 H       1  UNL1        0.0260
     42 H          -6.8561    0.1155   -2.3185 H       1  UNL1        0.0260
     43 H          -6.4040   -0.1041   -0.6110 H       1  UNL1        0.0260
     44 H          -4.7571   -2.0656    0.0782 H       1  UNL1        0.0597
     45 H          -3.2915   -2.5259   -2.5393 H       1  UNL1        0.0574
     46 H           0.1615   -5.1539   -0.8091 H       1  UNL1        0.0315
     47 H          -0.4686   -4.5927    0.7701 H       1  UNL1        0.0315
     48 H          -0.9560   -1.4200    1.3235 H       1  UNL1        0.0311
     49 H          -1.9738   -0.3788    0.2996 H       1  UNL1        0.0311
     50 H           1.1132   -0.4811   -0.0290 H       1  UNL1        0.0569
     51 H           0.7715    1.8720   -0.3003 H       1  UNL1        0.0569
     52 H          -1.8271    2.2570   -0.5863 H       1  UNL1        0.0307
     53 H          -2.0505    1.0672    0.7186 H       1  UNL1        0.0307
     54 H          -0.7828    2.5294    2.2689 H       1  UNL1        0.0272
     55 H          -0.5593    3.7192    0.9641 H       1  UNL1        0.0272
     56 H          -3.0185    3.9776    0.7785 H       1  UNL1        0.0325
     57 H          -3.2420    2.7878    2.0834 H       1  UNL1        0.0325
     58 H           1.7161   -3.1062    0.6559 H       1  UNL1        0.2098
     59 H          -2.3963   -6.2548   -0.3841 H       1  UNL1        0.2098
     60 H          -4.9984   -2.6811   -3.5274 H       1  UNL1        0.2106
     61 O          -3.4825    5.3330    3.1490 O.co2   1  UNL1       -0.5498
@<TRIPOS>UNITY_ATOM_ATTR
61 1
charge -1
@<TRIPOS>BOND
     1     1     2    1
     2     1    30    1
     3     1    31    1
     4     1    32    1
     5     2     3    1
     6     2    33    1
     7     2    34    1
     8     3     4    1
     9     3    35    1
    10     3    36    1
    11     4     5    1
    12     4    37    1
    13     4    38    1
    14     5     6    1
    15     5    39    1
    16     5    40    1
    17     6     7    1
    18     6     8    1
    19     6    29    1
    20     7    41    1
    21     7    42    1
    22     7    43    1
    23     8     9    2
    24     8    44    1
    25     9    10    1
    26     9    45    1
    27    10    11    1
    28    10    17    1
    29    10    12    1
    30    12    13    1
    31    12    14    1
    32    12    28    1
    33    14    15    1
    34    14    46    1
    35    14    47    1
    36    15    16    1
    37    15    17    1
    38    15    27    1
    39    17    18    1
    40    17    19    1
    41    19    20    1
    42    19    48    1
    43    19    49    1
    44    20    21    2
    45    20    50    1
    46    21    22    1
    47    21    51    1
    48    22    23    1
    49    22    52    1
    50    22    53    1
    51    23    24    1
    52    23    54    1
    53    23    55    1
    54    24    25    1
    55    24    56    1
    56    24    57    1
    57    25    26   ar
    58    25    61   ar
    59    27    58    1
    60    28    59    1
    61    29    60    1
