@<TRIPOS>MOLECULE
ZINC08101150
 94 97 0 0 0
SMALL
GASTEIGER

@<TRIPOS>ATOM
      1 C          -3.8319    2.0809   -1.8431 C.3     1  UNL1       -0.0274
      2 C          -4.0705    2.4653   -0.3815 C.3     1  UNL1        0.1040
      3 H          -5.0060    2.0227   -0.0393 H       1  UNL1        0.0734
      4 C          -4.1599    3.9898   -0.2652 C.3     1  UNL1        0.0026
      5 C          -5.2848    4.3378    0.6712 C.2     1  UNL1       -0.0805
      6 C          -5.2055    5.4031    1.4721 C.2     1  UNL1       -0.0656
      7 C          -6.3116    5.6345    2.4173 C.2     1  UNL1       -0.0621
      8 C          -5.9872    6.0707    3.6468 C.2     1  UNL1       -0.0618
      9 C          -6.6051    5.5533    4.8014 C.2     1  UNL1       -0.0618
     10 C          -5.8785    5.4421    5.9333 C.2     1  UNL1       -0.0620
     11 C          -6.3753    4.7230    7.1047 C.2     1  UNL1       -0.0633
     12 C          -5.4981    4.3998    8.0590 C.2     1  UNL1       -0.0555
     13 C          -5.8827    3.5050    9.2058 C.3     1  UNL1        0.0826
     14 H          -6.4179    4.0857    9.9572 H       1  UNL1        0.0642
     15 C          -4.6163    2.9097    9.8258 C.3     1  UNL1        0.0043
     16 C          -4.5639    1.4012    9.5784 C.3     1  UNL1        0.0748
     17 H          -5.4501    1.0937    9.0245 H       1  UNL1        0.0605
     18 C          -4.5185    0.6677   10.9209 C.3     1  UNL1        0.0511
     19 H          -5.2554   -0.1355   10.9210 H       1  UNL1        0.0411
     20 C          -3.1229    0.0789   11.1349 C.3     1  UNL1        0.0704
     21 H          -3.0834   -0.4194   12.1035 H       1  UNL1        0.0602
     22 C          -2.8209   -0.9333   10.0281 C.3     1  UNL1        0.0280
     23 C          -3.1632   -0.3182    8.6690 C.3     1  UNL1        0.1723
     24 O          -3.3922    1.0838    8.8240 O.3     1  UNL1       -0.3446
     25 C          -1.9953   -0.5382    7.7032 C.3     1  UNL1        0.0274
     26 C          -2.3278   -1.6949    6.7579 C.3     1  UNL1        0.0626
     27 H          -3.3192   -2.0823    6.9928 H       1  UNL1        0.0596
     28 C          -2.3047   -1.1963    5.3108 C.3     1  UNL1        0.0025
     29 C          -1.1241   -1.8309    4.5706 C.3     1  UNL1        0.0915
     30 H          -0.1650   -1.7885    5.0911 H       1  UNL1        0.0626
     31 C          -1.0992   -1.7369    3.0437 C.3     1  UNL1        0.1040
     32 H          -0.1229   -1.6459    2.5654 H       1  UNL1        0.0667
     33 O          -1.3841   -2.9575    3.7381 O.3     1  UNL1       -0.3638
     34 C          -2.2373   -1.0438    2.3497 C.2     1  UNL1       -0.0464
     35 C          -2.0419    0.1244    1.7392 C.2     1  UNL1        0.0211
     36 C          -3.1564    0.7769    1.0368 C.2     1  UNL1        0.3320
     37 O          -4.2460    0.2396    1.0018 O.2     1  UNL1       -0.2456
     38 O          -2.9767    1.9678    0.4318 O.3     1  UNL1       -0.4582
     39 O          -1.3604   -2.7343    6.9189 O.3     1  UNL1       -0.3915
     40 O          -4.3367   -0.9426    8.1457 O.3     1  UNL1       -0.3643
     41 O          -2.1530    1.1277   11.0988 O.3     1  UNL1       -0.3909
     42 C          -4.8309    1.6359   12.0327 C.2     1  UNL1        0.0497
     43 O          -3.9328    2.1466   12.6592 O.co2   1  UNL1       -0.5494
     44 O          -6.7222    2.4511    8.7298 O.3     1  UNL1       -0.3411
     45 C          -7.9664    2.3406    9.4238 C.3     1  UNL1        0.1913
     46 H          -7.7845    2.3409   10.4985 H       1  UNL1        0.0939
     47 C          -8.6601    1.0358    9.0237 C.3     1  UNL1        0.1506
     48 H          -8.0435    0.1886    9.3238 H       1  UNL1        0.0702
     49 C         -10.0194    0.9534    9.7250 C.3     1  UNL1        0.0359
     50 H          -9.8715    0.9222   10.8045 H       1  UNL1        0.0904
     51 C         -10.8472    2.1885    9.3567 C.3     1  UNL1        0.1258
     52 H         -11.7948    2.1657    9.8950 H       1  UNL1        0.0677
     53 C         -10.0691    3.4488    9.7439 C.3     1  UNL1        0.0902
     54 H          -9.9149    3.4636   10.8229 H       1  UNL1        0.0622
     55 O          -8.8028    3.4477    9.0817 O.3     1  UNL1       -0.3428
     56 C         -10.8632    4.6876    9.3249 C.3     1  UNL1       -0.0359
     57 O         -11.0973    2.1936    7.9498 O.3     1  UNL1       -0.3835
     58 O          -8.8497    1.0105    7.6075 O.3     1  UNL1       -0.3812
     59 H          -3.7783    0.9957   -1.9293 H       1  UNL1        0.0265
     60 H          -2.8946    2.5193   -2.1857 H       1  UNL1        0.0265
     61 H          -4.6528    2.4539   -2.4556 H       1  UNL1        0.0265
     62 H          -3.2218    4.3821    0.1276 H       1  UNL1        0.0343
     63 H          -4.3561    4.4205   -1.2471 H       1  UNL1        0.0343
     64 H          -6.1746    3.7215    0.6925 H       1  UNL1        0.0573
     65 H          -4.3385    6.0289    1.4740 H       1  UNL1        0.0614
     66 H          -7.2871    5.3005    2.1446 H       1  UNL1        0.0617
     67 H          -5.2372    6.8507    3.7574 H       1  UNL1        0.0618
     68 H          -7.6428    5.2553    4.7838 H       1  UNL1        0.0618
     69 H          -4.8957    5.9042    5.9776 H       1  UNL1        0.0617
     70 H          -7.4026    4.4087    7.1644 H       1  UNL1        0.0615
     71 H          -4.4885    4.7894    7.9946 H       1  UNL1        0.0598
     72 H          -4.6164    3.0997   10.8991 H       1  UNL1        0.0319
     73 H          -3.7418    3.3798    9.3761 H       1  UNL1        0.0319
     74 H          -3.4203   -1.8304   10.1825 H       1  UNL1        0.0342
     75 H          -1.7629   -1.1943   10.0528 H       1  UNL1        0.0342
     76 H          -1.0956   -0.7787    8.2695 H       1  UNL1        0.0342
     77 H          -1.8277    0.3690    7.1226 H       1  UNL1        0.0342
     78 H          -2.1983   -0.1116    5.3019 H       1  UNL1        0.0316
     79 H          -3.2353   -1.4742    4.8160 H       1  UNL1        0.0316
     80 H          -3.2244   -1.4870    2.3446 H       1  UNL1        0.0601
     81 H          -1.0684    0.5919    1.7628 H       1  UNL1        0.0686
     82 H          -1.5096   -3.5020    6.3501 H       1  UNL1        0.2098
     83 H          -4.6116   -0.6029    7.2830 H       1  UNL1        0.2128
     84 H          -1.2432    0.8266   11.2280 H       1  UNL1        0.2098
     85 H         -11.8293    4.6878    9.8297 H       1  UNL1        0.0255
     86 H         -10.3091    5.5848    9.6007 H       1  UNL1        0.0255
     87 H         -11.0170    4.6728    8.2459 H       1  UNL1        0.0255
     88 H         -11.6179    2.9497    7.6456 H       1  UNL1        0.2102
     89 H         -10.1943   -1.0870    9.5144 H       1  UNL1        0.1999
     90 H         -11.6503   -0.3024    9.6882 H       1  UNL1        0.1999
     91 H          -8.0285    1.0639    7.0997 H       1  UNL1        0.2103
     92 O          -6.1069    1.9309   12.3270 O.co2   1  UNL1       -0.5494
     93 N         -10.7256   -0.2548    9.2637 N.4     1  UNL1        0.2246
     94 H         -10.8272   -0.2172    8.2426 H       1  UNL1        0.1999
@<TRIPOS>UNITY_ATOM_ATTR
92 1
charge -1
93 1
charge 1
@<TRIPOS>BOND
     1     1     2    1
     2     1    59    1
     3     1    60    1
     4     1    61    1
     5     2     3    1
     6     2    38    1
     7     2     4    1
     8     4     5    1
     9     4    62    1
    10     4    63    1
    11     5     6    2
    12     5    64    1
    13     6     7    1
    14     6    65    1
    15     7     8    2
    16     7    66    1
    17     8     9    1
    18     8    67    1
    19     9    10    2
    20     9    68    1
    21    10    11    1
    22    10    69    1
    23    11    12    2
    24    11    70    1
    25    12    13    1
    26    12    71    1
    27    13    14    1
    28    13    15    1
    29    13    44    1
    30    15    16    1
    31    15    72    1
    32    15    73    1
    33    16    17    1
    34    16    24    1
    35    16    18    1
    36    18    19    1
    37    18    20    1
    38    18    42    1
    39    20    21    1
    40    20    22    1
    41    20    41    1
    42    22    23    1
    43    22    74    1
    44    22    75    1
    45    23    24    1
    46    23    25    1
    47    23    40    1
    48    25    26    1
    49    25    76    1
    50    25    77    1
    51    26    27    1
    52    26    28    1
    53    26    39    1
    54    28    29    1
    55    28    78    1
    56    28    79    1
    57    29    30    1
    58    29    33    1
    59    29    31    1
    60    31    32    1
    61    31    33    1
    62    31    34    1
    63    34    35    2
    64    34    80    1
    65    35    36    1
    66    35    81    1
    67    36    37    2
    68    36    38    1
    69    39    82    1
    70    40    83    1
    71    41    84    1
    72    42    43   ar
    73    42    92   ar
    74    44    45    1
    75    45    46    1
    76    45    55    1
    77    45    47    1
    78    47    48    1
    79    47    49    1
    80    47    58    1
    81    49    50    1
    82    49    51    1
    83    49    93    1
    84    51    52    1
    85    51    53    1
    86    51    57    1
    87    53    54    1
    88    53    55    1
    89    53    56    1
    90    56    85    1
    91    56    86    1
    92    56    87    1
    93    57    88    1
    94    58    91    1
    95    89    93    1
    96    90    93    1
    97    93    94    1
