@<TRIPOS>MOLECULE
ZINC03830429
 70 74 0 0 0
SMALL
GASTEIGER

@<TRIPOS>ATOM
      1 C          -1.6905    2.2866   -2.1916 C.3     1  UNL1       -0.0493
      2 C          -1.2256    1.8596   -0.7979 C.3     1  UNL1        0.0123
      3 N           0.0312    1.1152   -0.9091 N.am    1  UNL1       -0.2925
      4 C           1.3085    1.8266   -0.8500 C.3     1  UNL1        0.0314
      5 C           2.3430    1.0071   -0.0840 C.3     1  UNL1        0.0401
      6 N           2.4176   -0.3533   -0.6176 N.am    1  UNL1       -0.2167
      7 C           1.2984   -0.9818   -1.0295 C.2     1  UNL1        0.3091
      8 O           1.3366   -2.1453   -1.3705 O.2     1  UNL1       -0.2645
      9 C           0.0083   -0.2242   -1.0600 C.2     1  UNL1        0.3022
     10 O          -1.0440   -0.8074   -1.2188 O.2     1  UNL1       -0.2649
     11 C           3.6084   -0.9795   -0.6978 C.2     1  UNL1        0.3098
     12 O           3.6623   -2.1388   -1.0588 O.2     1  UNL1       -0.2522
     13 N           4.7394   -0.3201   -0.3776 N.am    1  UNL1       -0.2836
     14 CA          6.0416   -0.9632   -0.5699 C.3     1  UNL1        0.1261
     15 HA          5.9536   -2.0303   -0.3656 H       1  UNL1        0.0646
     16 C           6.4972   -0.7600   -1.9919 C.ar    1  UNL1       -0.0181
     17 C           6.2863    0.4551   -2.6172 C.ar    1  UNL1       -0.0529
     18 C           6.7081    0.6457   -3.9188 C.ar    1  UNL1       -0.0199
     19 C           7.3330   -0.3870   -4.6026 C.ar    1  UNL1        0.1169
     20 C           7.5383   -1.6071   -3.9748 C.ar    1  UNL1       -0.0199
     21 C           7.1202   -1.7907   -2.6711 C.ar    1  UNL1       -0.0529
     22 O           7.7430   -0.2040   -5.8852 O.3     1  UNL1       -0.5068
     23 C           7.0473   -0.3527    0.3719 C.2     1  UNL1        0.2386
     24 O           6.7096    0.5324    1.1291 O.2     1  UNL1       -0.2734
     25 N           8.3220   -0.7903    0.3726 N.am    1  UNL1       -0.2999
     26 CA          9.2997   -0.1968    1.2882 C.3     1  UNL1        0.1284
     27 HA          9.0418    0.8206    1.5823 H       1  UNL1        0.0622
     28 C          10.7444   -0.3524    0.8255 C.3     1  UNL1        0.1041
     29 H          10.8901   -0.9627   -0.0658 H       1  UNL1        0.0644
     30 N          10.9720   -1.0206    2.1464 N.am    1  UNL1       -0.2533
     31 C           9.6639   -1.0958    2.4576 C.2     1  UNL1        0.2438
     32 O           9.0286   -1.6572    3.3249 O.2     1  UNL1       -0.2731
     33 CA         12.2127   -1.2430    2.7665 C.2     1  UNL1        0.0607
     34 C          13.2723   -0.5313    2.4133 C.2     1  UNL1       -0.0264
     35 C          13.3778    0.5122    1.3494 C.3     1  UNL1        0.0195
     36 S          11.7489    1.1700    0.8749 S.3     1  UNL1       -0.1311
     37 C          14.5363   -0.8109    3.1848 C.3     1  UNL1        0.0251
     38 S          15.6387   -1.8403    2.1841 S.3     1  UNL1       -0.0801
     39 C          16.9951   -2.0068    3.2963 C.ar    1  UNL1        0.2094
     40 N          17.0885   -1.4826    4.4991 N.ar    1  UNL1       -0.1015
     41 N          18.2070   -1.8020    5.0433 N.ar    1  UNL1       -0.0222
     42 N          18.9033   -2.5321    4.2410 N.ar    1  UNL1       -0.0435
     43 N          18.1401   -2.6937    3.0715 N.ar    1  UNL1       -0.2233
     44 C          18.5050   -3.4449    1.8678 C.3     1  UNL1        0.0346
     45 C          12.3356   -2.2720    3.8148 C.2     1  UNL1        0.0860
     46 O          12.5394   -3.4300    3.5084 O.co2   1  UNL1       -0.5433
     47 H          -1.8454    1.4024   -2.8097 H       1  UNL1        0.0245
     48 H          -2.6256    2.8405   -2.1088 H       1  UNL1        0.0245
     49 H          -0.9316    2.9213   -2.6491 H       1  UNL1        0.0245
     50 H          -1.9845    1.2249   -0.3403 H       1  UNL1        0.0462
     51 H          -1.0707    2.7439   -0.1797 H       1  UNL1        0.0462
     52 H           1.6687    2.0036   -1.8635 H       1  UNL1        0.0480
     53 H           1.1644    2.7831   -0.3475 H       1  UNL1        0.0480
     54 H           3.3190    1.4835   -0.1760 H       1  UNL1        0.0485
     55 H           2.0611    0.9651    0.9681 H       1  UNL1        0.0485
     56 H           4.6912    0.5802   -0.0199 H       1  UNL1        0.1513
     57 H           5.7952    1.2571   -2.0862 H       1  UNL1        0.0622
     58 H           6.5468    1.5963   -4.4054 H       1  UNL1        0.0654
     59 H           8.0249   -2.4125   -4.5049 H       1  UNL1        0.0654
     60 H           7.2798   -2.7403   -2.1819 H       1  UNL1        0.0622
     61 H           7.0767   -0.4330   -6.5476 H       1  UNL1        0.2921
     62 H           8.5922   -1.4982   -0.2330 H       1  UNL1        0.1496
     63 H          13.8533    0.0758    0.4710 H       1  UNL1        0.0423
     64 H          13.9974    1.3306    1.7160 H       1  UNL1        0.0423
     65 H          15.0332    0.1300    3.4214 H       1  UNL1        0.0427
     66 H          14.2899   -1.3341    4.1087 H       1  UNL1        0.0427
     67 H          19.0245   -2.7861    1.1720 H       1  UNL1        0.0474
     68 H          19.1589   -4.2732    2.1408 H       1  UNL1        0.0474
     69 H          17.6033   -3.8342    1.3952 H       1  UNL1        0.0474
     70 OXT        12.2218   -1.9284    5.1130 O.co2   1  UNL1       -0.5433
@<TRIPOS>UNITY_ATOM_ATTR
70 1
charge -1
@<TRIPOS>BOND
     1     1     2    1
     2     1    47    1
     3     1    48    1
     4     1    49    1
     5     2     3    1
     6     2    50    1
     7     2    51    1
     8     3     9   am
     9     3     4    1
    10     4     5    1
    11     4    52    1
    12     4    53    1
    13     5     6    1
    14     5    54    1
    15     5    55    1
    16     6     7   am
    17     6    11   am
    18     7     8    2
    19     7     9    1
    20     9    10    2
    21    11    12    2
    22    11    13   am
    23    13    14    1
    24    13    56    1
    25    14    15    1
    26    14    16    1
    27    14    23    1
    28    16    21   ar
    29    16    17   ar
    30    17    18   ar
    31    17    57    1
    32    18    19   ar
    33    18    58    1
    34    19    20   ar
    35    19    22    1
    36    20    21   ar
    37    20    59    1
    38    21    60    1
    39    22    61    1
    40    23    24    2
    41    23    25   am
    42    25    26    1
    43    25    62    1
    44    26    27    1
    45    26    31    1
    46    26    28    1
    47    28    29    1
    48    28    36    1
    49    28    30    1
    50    30    31   am
    51    30    33    1
    52    31    32    2
    53    33    34    2
    54    33    45    1
    55    34    35    1
    56    34    37    1
    57    35    36    1
    58    35    63    1
    59    35    64    1
    60    37    38    1
    61    37    65    1
    62    37    66    1
    63    38    39    1
    64    39    43   ar
    65    39    40   ar
    66    40    41   ar
    67    41    42   ar
    68    42    43   ar
    69    43    44    1
    70    44    67    1
    71    44    68    1
    72    44    69    1
    73    45    46   ar
    74    45    70   ar
