@<TRIPOS>MOLECULE
ZINC00538442
 58 61 0 0 0
SMALL
GASTEIGER

@<TRIPOS>ATOM
      1 C           8.3001   -6.2447    2.6636 C.3     1  UNL1       -0.0559
      2 C           6.9312   -5.7312    2.2126 C.3     1  UNL1       -0.0045
      3 S           7.0724   -3.9938    1.7108 S.3     1  UNL1       -0.1254
      4 C           5.4361   -3.5559    1.2256 C.ar    1  UNL1        0.0097
      5 C           4.4168   -4.4963    1.2949 C.ar    1  UNL1       -0.0472
      6 C           3.1338   -4.1496    0.9146 C.ar    1  UNL1       -0.0451
      7 C           2.8606   -2.8659    0.4644 C.ar    1  UNL1        0.0342
      8 C           3.8779   -1.9184    0.3902 C.ar    1  UNL1        0.0489
      9 C           5.1671   -2.2713    0.7740 C.ar    1  UNL1       -0.0258
     10 N           3.6442   -0.6216   -0.0601 N.pl3   1  UNL1       -0.2981
     11 C           2.4103    0.0228   -0.0274 C.ar    1  UNL1        0.0479
     12 C           2.3793    1.4134   -0.0160 C.ar    1  UNL1       -0.0393
     13 C           1.1714    2.0845    0.0021 C.ar    1  UNL1       -0.0599
     14 C          -0.0167    1.3787    0.0096 C.ar    1  UNL1       -0.0606
     15 C           0.0021   -0.0041    0.0020 C.ar    1  UNL1       -0.0462
     16 C           1.2114   -0.6846   -0.0137 C.ar    1  UNL1        0.0341
     17 S           1.2166   -2.4459   -0.0104 S.3     1  UNL1       -0.0857
     18 C           4.7819    0.1204   -0.6089 C.3     1  UNL1        0.0221
     19 C           5.4795    0.8892    0.5150 C.3     1  UNL1        0.0036
     20 C           6.6676    1.6642   -0.0582 C.3     1  UNL1       -0.0300
     21 C           6.4646    3.4549    1.5595 C.3     1  UNL1        0.0094
     22 C           7.1665    4.1460    2.7309 C.3     1  UNL1        0.0092
     23 C           9.3160    3.6566    1.7317 C.3     1  UNL1        0.0092
     24 C           8.6142    2.9655    0.5603 C.3     1  UNL1        0.0094
     25 C           9.1130    5.4473    3.3494 C.3     1  UNL1       -0.0427
     26 H           9.0090   -6.1609    1.8399 H       1  UNL1        0.0238
     27 H           8.6513   -5.6503    3.5071 H       1  UNL1        0.0238
     28 H           8.2152   -7.2888    2.9651 H       1  UNL1        0.0238
     29 H           6.2223   -5.8151    3.0364 H       1  UNL1        0.0377
     30 H           6.5800   -6.3257    1.3692 H       1  UNL1        0.0377
     31 H           4.6258   -5.4962    1.6455 H       1  UNL1        0.0629
     32 H           2.3408   -4.8808    0.9683 H       1  UNL1        0.0630
     33 H           5.9623   -1.5425    0.7210 H       1  UNL1        0.0647
     34 H           3.3039    1.9715   -0.0216 H       1  UNL1        0.0636
     35 H           1.1558    3.1644    0.0099 H       1  UNL1        0.0618
     36 H          -0.9589    1.9064    0.0170 H       1  UNL1        0.0618
     37 H          -0.9265   -0.5556    0.0080 H       1  UNL1        0.0629
     38 H           5.4857   -0.5772   -1.0631 H       1  UNL1        0.0470
     39 H           4.4278    0.8223   -1.3639 H       1  UNL1        0.0470
     40 H           4.7757    1.5868    0.9692 H       1  UNL1        0.0332
     41 H           5.8336    0.1873    1.2700 H       1  UNL1        0.0332
     42 H           7.3714    0.9666   -0.5124 H       1  UNL1        0.0815
     43 H           6.3135    2.3661   -0.8131 H       1  UNL1        0.0815
     44 H           6.2531    4.1863    0.7796 H       1  UNL1        0.0868
     45 H           5.5309    3.0114    1.9055 H       1  UNL1        0.0868
     46 H           7.3536    3.4202    3.5222 H       1  UNL1        0.0868
     47 H           6.5330    4.9463    3.1134 H       1  UNL1        0.0868
     48 H           9.5276    2.9252    2.5116 H       1  UNL1        0.0868
     49 H          10.2499    4.0998    1.3858 H       1  UNL1        0.0868
     50 H           9.2477    2.1652    0.1778 H       1  UNL1        0.0868
     51 H           8.4271    3.6913   -0.2310 H       1  UNL1        0.0868
     52 H          10.0215    5.9100    2.9637 H       1  UNL1        0.0778
     53 H           8.4451    6.2201    3.7299 H       1  UNL1        0.0778
     54 H           9.3694    4.7596    4.1552 H       1  UNL1        0.0778
     55 N           7.3430    2.3849    1.0420 N.4     1  UNL1        0.2427
     56 H           7.5447    1.7226    1.8003 H       1  UNL1        0.2038
     57 N           8.4376    4.7266    2.2492 N.4     1  UNL1        0.2405
     58 H           8.2360    5.3889    1.4909 H       1  UNL1        0.2035
@<TRIPOS>UNITY_ATOM_ATTR
55 1
charge 1
57 1
charge 1
@<TRIPOS>BOND
     1     1     2    1
     2     1    26    1
     3     1    27    1
     4     1    28    1
     5     2     3    1
     6     2    29    1
     7     2    30    1
     8     3     4    1
     9     4     9   ar
    10     4     5   ar
    11     5     6   ar
    12     5    31    1
    13     6     7   ar
    14     6    32    1
    15     7    17    1
    16     7     8   ar
    17     8     9   ar
    18     8    10    1
    19     9    33    1
    20    10    11    1
    21    10    18    1
    22    11    16   ar
    23    11    12   ar
    24    12    13   ar
    25    12    34    1
    26    13    14   ar
    27    13    35    1
    28    14    15   ar
    29    14    36    1
    30    15    16   ar
    31    15    37    1
    32    16    17    1
    33    18    19    1
    34    18    38    1
    35    18    39    1
    36    19    20    1
    37    19    40    1
    38    19    41    1
    39    20    42    1
    40    20    43    1
    41    20    55    1
    42    21    22    1
    43    21    44    1
    44    21    45    1
    45    21    55    1
    46    22    46    1
    47    22    47    1
    48    22    57    1
    49    23    24    1
    50    23    48    1
    51    23    49    1
    52    23    57    1
    53    24    50    1
    54    24    51    1
    55    24    55    1
    56    25    52    1
    57    25    53    1
    58    25    54    1
    59    25    57    1
    60    55    56    1
    61    57    58    1
