@<TRIPOS>MOLECULE
ZINC03831175
 54 59 0 0 0
SMALL
GASTEIGER

@<TRIPOS>ATOM
      1 C           2.9706   -0.5891    2.3611 C.ar    1  UNL1       -0.0544
      2 C           4.0594    0.1948    2.7203 C.ar    1  UNL1       -0.0162
      3 C           4.2372    1.5124    2.2940 C.ar    1  UNL1        0.1588
      4 C           3.2845    2.0289    1.4234 C.ar    1  UNL1        0.1664
      5 C           2.2732    1.1590    0.9947 C.ar    1  UNL1        0.0142
      6 C           2.0119   -0.0833    1.5097 C.ar    1  UNL1       -0.0343
      7 C           0.6843   -0.6868    1.1734 C.3     1  UNL1        0.0187
      8 C           0.0021   -0.0041    0.0020 C.3     1  UNL1        0.0136
      9 H          -1.0318   -0.3492   -0.0115 H       1  UNL1        0.0883
     10 C          -0.0186    1.5185    0.0104 C.3     1  UNL1        0.1219
     11 C           1.4544    1.9330   -0.0014 C.3     1  UNL1        0.0775
     12 C           2.0014    1.6865   -1.3846 C.3     1  UNL1        0.0036
     13 C           1.9380    0.1534   -1.5679 C.3     1  UNL1       -0.0305
     14 C           0.6153   -1.8602   -1.4358 C.3     1  UNL1       -0.0286
     15 C           1.0284   -2.2204   -2.8643 C.3     1  UNL1       -0.0008
     16 C          -0.1474   -2.2584   -3.8546 C.3     1  UNL1       -0.0454
     17 C           0.5138   -3.5028   -4.4703 C.3     1  UNL1       -0.0522
     18 C           1.1740   -3.7329   -3.1006 C.3     1  UNL1       -0.0454
     19 C           1.6405    3.2590    0.7193 C.3     1  UNL1        0.1387
     20 H           1.2667    2.9489    1.6951 H       1  UNL1        0.0769
     21 O           3.0304    3.2974    0.9405 O.3     1  UNL1       -0.4813
     22 C           0.6299    4.2579    0.3130 C.3     1  UNL1        0.0930
     23 H           0.5767    4.3174   -0.7740 H       1  UNL1        0.0630
     24 C          -0.7210    3.7558    0.8875 C.3     1  UNL1       -0.0205
     25 C          -0.6842    2.2407    1.1666 C.3     1  UNL1       -0.0153
     26 O           0.9549    5.5374    0.8600 O.3     1  UNL1       -0.3881
     27 O          -0.6224    1.9706   -1.2033 O.3     1  UNL1       -0.3820
     28 O           5.2958    2.2572    2.7113 O.3     1  UNL1       -0.5033
     29 H           2.8752   -1.5928    2.7484 H       1  UNL1        0.0622
     30 H           4.8096   -0.2385    3.3651 H       1  UNL1        0.0655
     31 H           0.0357   -0.6166    2.0466 H       1  UNL1        0.0369
     32 H           0.8288   -1.7395    0.9303 H       1  UNL1        0.0369
     33 H           3.0322    2.0341   -1.4522 H       1  UNL1        0.0328
     34 H           1.3845    2.1837   -2.1331 H       1  UNL1        0.0328
     35 H           2.6669   -0.3101   -0.9033 H       1  UNL1        0.0815
     36 H           2.2016   -0.0882   -2.5976 H       1  UNL1        0.0815
     37 H           1.3189   -2.3037   -0.7313 H       1  UNL1        0.0817
     38 H          -0.3859   -2.2438   -1.2395 H       1  UNL1        0.0817
     39 H           1.8801   -1.6392   -3.2178 H       1  UNL1        0.0352
     40 H          -1.1088   -2.4628   -3.3833 H       1  UNL1        0.0270
     41 H          -0.1787   -1.4021   -4.5283 H       1  UNL1        0.0270
     42 H           1.2241   -3.2722   -5.2642 H       1  UNL1        0.0266
     43 H          -0.1961   -4.2816   -4.7492 H       1  UNL1        0.0266
     44 H           2.2095   -4.0670   -3.1657 H       1  UNL1        0.0270
     45 H           0.5739   -4.3404   -2.4232 H       1  UNL1        0.0270
     46 H          -0.9319    4.2847    1.8170 H       1  UNL1        0.0292
     47 H          -1.5140    3.9662    0.1698 H       1  UNL1        0.0292
     48 H          -1.7021    1.8700    1.2871 H       1  UNL1        0.0296
     49 H          -0.1219    2.0547    2.0816 H       1  UNL1        0.0296
     50 H           0.3272    6.2354    0.6278 H       1  UNL1        0.2099
     51 H          -1.5313    1.6650   -1.3280 H       1  UNL1        0.2105
     52 H           6.0751    2.1859    2.1433 H       1  UNL1        0.2923
     53 N           0.5721   -0.4006   -1.3334 N.4     1  UNL1        0.2399
     54 H          -0.0493   -0.0372   -2.0655 H       1  UNL1        0.2037
@<TRIPOS>UNITY_ATOM_ATTR
53 1
charge 1
@<TRIPOS>BOND
     1     1     6   ar
     2     1     2   ar
     3     1    29    1
     4     2     3   ar
     5     2    30    1
     6     3     4   ar
     7     3    28    1
     8     4    21    1
     9     4     5   ar
    10     5    11    1
    11     5     6   ar
    12     6     7    1
    13     7     8    1
    14     7    31    1
    15     7    32    1
    16     8     9    1
    17     8    10    1
    18     8    53    1
    19    10    25    1
    20    10    11    1
    21    10    27    1
    22    11    12    1
    23    11    19    1
    24    12    13    1
    25    12    33    1
    26    12    34    1
    27    13    35    1
    28    13    36    1
    29    13    53    1
    30    14    15    1
    31    14    37    1
    32    14    38    1
    33    14    53    1
    34    15    18    1
    35    15    16    1
    36    15    39    1
    37    16    17    1
    38    16    40    1
    39    16    41    1
    40    17    18    1
    41    17    42    1
    42    17    43    1
    43    18    44    1
    44    18    45    1
    45    19    20    1
    46    19    21    1
    47    19    22    1
    48    22    23    1
    49    22    24    1
    50    22    26    1
    51    24    25    1
    52    24    46    1
    53    24    47    1
    54    25    48    1
    55    25    49    1
    56    26    50    1
    57    27    51    1
    58    28    52    1
    59    53    54    1
