@<TRIPOS>MOLECULE
ZINC08101111
 84 87 0 0 0
SMALL
GASTEIGER

@<TRIPOS>ATOM
      1 C         -11.3121    1.3940   -1.4328 C.3     1  UNL1       -0.0598
      2 C         -10.6439    0.6124   -0.3028 C.3     1  UNL1       -0.0145
      3 H         -11.0388   -0.4308   -0.3821 H       1  UNL1        0.0326
      4 C          -9.1399    0.5101   -0.4897 C.3     1  UNL1       -0.0303
      5 H          -8.9534    0.5180   -1.5883 H       1  UNL1        0.0310
      6 C          -8.6857   -0.8622    0.0073 C.3     1  UNL1       -0.0489
      7 C          -7.1996   -1.0554   -0.2893 C.3     1  UNL1       -0.0465
      8 C          -6.4083   -0.0069    0.4862 C.3     1  UNL1       -0.0203
      9 C          -6.8320    1.3951    0.0608 C.3     1  UNL1       -0.0034
     10 H          -6.5625    1.4919   -1.0166 H       1  UNL1        0.0336
     11 C          -8.3307    1.6561    0.0958 C.3     1  UNL1       -0.0232
     12 C          -8.8032    2.0306    1.4932 C.3     1  UNL1       -0.0447
     13 C         -10.2960    2.3662    1.4792 C.3     1  UNL1       -0.0261
     14 C         -11.0835    1.1321    1.0530 C.3     1  UNL1        0.0581
     15 H         -12.1493    1.3994    1.0041 H       1  UNL1        0.0596
     16 O         -10.9350    0.1059    2.0406 O.3     1  UNL1       -0.3915
     17 C          -8.5744    2.8777   -0.8349 C.3     1  UNL1       -0.0589
     18 C          -5.9929    2.4357    0.7965 C.3     1  UNL1        0.0596
     19 H          -6.0329    2.2653    1.8746 H       1  UNL1        0.0596
     20 C          -4.5219    2.3145    0.3297 C.3     1  UNL1       -0.0194
     21 C          -4.3983    1.0785   -0.5261 C.3     1  UNL1       -0.0075
     22 H          -4.9691    1.2083   -1.4514 H       1  UNL1        0.0353
     23 C          -4.9161   -0.1593    0.2430 C.3     1  UNL1       -0.0160
     24 C          -4.5011   -1.2925   -0.7065 C.3     1  UNL1       -0.0052
     25 C          -3.0984   -0.8359   -1.1942 C.3     1  UNL1        0.1255
     26 H          -3.0014   -1.0216   -2.2648 H       1  UNL1        0.0782
     27 C          -3.0036    0.6607   -0.9169 C.2     1  UNL1       -0.0210
     28 C          -1.9267    1.4320   -1.0049 C.2     1  UNL1       -0.0218
     29 C          -1.9905    2.8692   -0.5561 C.3     1  UNL1       -0.0225
     30 C          -2.3835    3.7560   -1.7393 C.3     1  UNL1       -0.0305
     31 C          -2.3493    5.2020   -1.3164 C.2     1  UNL1       -0.0850
     32 C          -1.5808    6.0521   -1.9511 C.2     1  UNL1       -0.0796
     33 C          -0.6883    5.5732   -3.0670 C.3     1  UNL1       -0.0440
     34 C          -1.5892    7.5089   -1.5654 C.3     1  UNL1       -0.0440
     35 C          -0.6724    0.8843   -1.5399 C.2     1  UNL1        0.0678
     36 O          -0.6318   -0.2628   -1.9395 O.co2   1  UNL1       -0.5450
     37 O          -2.0590   -1.5471   -0.4737 O.3     1  UNL1       -0.4570
     38 C          -1.6968   -2.7472   -0.9538 C.2     1  UNL1        0.3045
     39 O          -2.1633   -3.1476   -1.9939 O.2     1  UNL1       -0.2511
     40 C          -0.7083   -3.5950   -0.1954 C.3     1  UNL1        0.0333
     41 C          -4.1949   -0.3230    1.5862 C.3     1  UNL1       -0.0584
     42 O          -6.4240    3.7719    0.5430 O.3     1  UNL1       -0.3915
     43 C          -6.6230   -0.2334    1.9887 C.3     1  UNL1       -0.0587
     44 H         -11.1759    0.8605   -2.3736 H       1  UNL1        0.0233
     45 H         -12.3770    1.4960   -1.2238 H       1  UNL1        0.0233
     46 H         -10.8601    2.3830   -1.5073 H       1  UNL1        0.0233
     47 H          -9.2521   -1.6304   -0.5363 H       1  UNL1        0.0268
     48 H          -8.9000   -0.9707    1.0629 H       1  UNL1        0.0268
     49 H          -7.0233   -0.9317   -1.3586 H       1  UNL1        0.0271
     50 H          -6.8892   -2.0538    0.0189 H       1  UNL1        0.0271
     51 H          -8.6557    1.2041    2.1884 H       1  UNL1        0.0271
     52 H          -8.2484    2.8985    1.8556 H       1  UNL1        0.0271
     53 H         -10.5974    2.6383    2.5008 H       1  UNL1        0.0290
     54 H         -10.5100    3.2059    0.8313 H       1  UNL1        0.0290
     55 H         -11.2516    0.3568    2.9192 H       1  UNL1        0.2098
     56 H          -9.6219    3.1738   -0.7789 H       1  UNL1        0.0235
     57 H          -7.9445    3.7083   -0.5166 H       1  UNL1        0.0235
     58 H          -8.3277    2.6072   -1.8616 H       1  UNL1        0.0235
     59 H          -4.2723    3.2007   -0.2689 H       1  UNL1        0.0296
     60 H          -3.8575    2.2790    1.1887 H       1  UNL1        0.0296
     61 H          -5.1882   -1.3754   -1.5464 H       1  UNL1        0.0310
     62 H          -4.4305   -2.2386   -0.1686 H       1  UNL1        0.0310
     63 H          -2.7327    2.9699    0.2358 H       1  UNL1        0.0317
     64 H          -1.0144    3.1762   -0.1804 H       1  UNL1        0.0317
     65 H          -1.6819    3.6004   -2.5588 H       1  UNL1        0.0311
     66 H          -3.3899    3.4974   -2.0686 H       1  UNL1        0.0311
     67 H          -2.9585    5.5375   -0.4901 H       1  UNL1        0.0572
     68 H          -1.2562    5.5374   -3.9966 H       1  UNL1        0.0274
     69 H           0.1514    6.2589   -3.1803 H       1  UNL1        0.0274
     70 H          -0.3144    4.5768   -2.8310 H       1  UNL1        0.0274
     71 H          -0.8384    7.6851   -0.7952 H       1  UNL1        0.0274
     72 H          -1.3619    8.1177   -2.4405 H       1  UNL1        0.0274
     73 H          -2.5734    7.7774   -1.1816 H       1  UNL1        0.0274
     74 H          -1.2426   -4.2389    0.5032 H       1  UNL1        0.0342
     75 H          -0.1434   -4.2093   -0.8965 H       1  UNL1        0.0342
     76 H          -0.0240   -2.9499    0.3557 H       1  UNL1        0.0342
     77 H          -3.1178   -0.3424    1.4202 H       1  UNL1        0.0235
     78 H          -4.4470    0.5132    2.2383 H       1  UNL1        0.0235
     79 H          -4.5071   -1.2562    2.0549 H       1  UNL1        0.0235
     80 H          -5.9041    4.4465    1.0009 H       1  UNL1        0.2098
     81 H          -6.1562    0.5768    2.5487 H       1  UNL1        0.0235
     82 H          -7.6914   -0.2553    2.2038 H       1  UNL1        0.0235
     83 H          -6.1741   -1.1828    2.2808 H       1  UNL1        0.0235
     84 O           0.4316    1.6559   -1.5927 O.co2   1  UNL1       -0.5450
@<TRIPOS>UNITY_ATOM_ATTR
84 1
charge -1
@<TRIPOS>BOND
     1     1     2    1
     2     1    44    1
     3     1    45    1
     4     1    46    1
     5     2     3    1
     6     2    14    1
     7     2     4    1
     8     4     5    1
     9     4    11    1
    10     4     6    1
    11     6     7    1
    12     6    47    1
    13     6    48    1
    14     7     8    1
    15     7    49    1
    16     7    50    1
    17     8    23    1
    18     8     9    1
    19     8    43    1
    20     9    10    1
    21     9    11    1
    22     9    18    1
    23    11    12    1
    24    11    17    1
    25    12    13    1
    26    12    51    1
    27    12    52    1
    28    13    14    1
    29    13    53    1
    30    13    54    1
    31    14    15    1
    32    14    16    1
    33    16    55    1
    34    17    56    1
    35    17    57    1
    36    17    58    1
    37    18    19    1
    38    18    20    1
    39    18    42    1
    40    20    21    1
    41    20    59    1
    42    20    60    1
    43    21    22    1
    44    21    27    1
    45    21    23    1
    46    23    24    1
    47    23    41    1
    48    24    25    1
    49    24    61    1
    50    24    62    1
    51    25    26    1
    52    25    27    1
    53    25    37    1
    54    27    28    2
    55    28    29    1
    56    28    35    1
    57    29    30    1
    58    29    63    1
    59    29    64    1
    60    30    31    1
    61    30    65    1
    62    30    66    1
    63    31    32    2
    64    31    67    1
    65    32    33    1
    66    32    34    1
    67    33    68    1
    68    33    69    1
    69    33    70    1
    70    34    71    1
    71    34    72    1
    72    34    73    1
    73    35    36   ar
    74    35    84   ar
    75    37    38    1
    76    38    39    2
    77    38    40    1
    78    40    74    1
    79    40    75    1
    80    40    76    1
    81    41    77    1
    82    41    78    1
    83    41    79    1
    84    42    80    1
    85    43    81    1
    86    43    82    1
    87    43    83    1
