@<TRIPOS>MOLECULE
ZINC04113802
 54 57 0 0 0
SMALL
GASTEIGER

@<TRIPOS>ATOM
      1 C          -8.4282    8.0482    5.3300 C.3     1  UNL1        0.0332
      2 C          -7.3424    7.1179    4.8540 C.2     1  UNL1        0.3042
      3 O          -6.5709    6.6336    5.6478 O.2     1  UNL1       -0.2512
      4 O          -7.2324    6.8273    3.5482 O.3     1  UNL1       -0.4612
      5 C          -6.1629    5.9238    3.1616 C.3     1  UNL1        0.1068
      6 H          -5.9606    5.2308    3.9791 H       1  UNL1        0.0737
      7 C          -6.5843    5.1376    1.9202 C.3     1  UNL1       -0.0146
      8 C          -5.4965    4.1372    1.5333 C.3     1  UNL1       -0.0403
      9 C          -4.1848    4.8575    1.2151 C.3     1  UNL1       -0.0077
     10 C          -3.1012    3.8774    0.8401 C.3     1  UNL1       -0.0285
     11 H          -3.2001    3.8065   -0.2577 H       1  UNL1        0.0312
     12 C          -3.3095    2.4684    1.3776 C.3     1  UNL1       -0.0483
     13 C          -2.5158    1.4619    0.5250 C.3     1  UNL1       -0.0404
     14 C          -1.2400    2.0942    0.0319 C.3     1  UNL1        0.0293
     15 C          -0.7343    3.1721    0.9994 C.3     1  UNL1       -0.0252
     16 H          -0.5926    2.7254    2.0037 H       1  UNL1        0.0313
     17 C          -1.6821    4.3506    1.1292 C.3     1  UNL1       -0.0303
     18 H          -1.3934    5.1525    0.4514 H       1  UNL1        0.0310
     19 C          -1.5772    4.8300    2.5855 C.3     1  UNL1       -0.0311
     20 C          -2.6721    5.7879    2.9241 C.2     1  UNL1       -0.0838
     21 C          -3.8349    5.7746    2.3460 C.2     1  UNL1       -0.0638
     22 C          -4.8988    6.7315    2.8544 C.3     1  UNL1        0.0061
     23 C           0.6526    3.4914    0.4190 C.3     1  UNL1       -0.0424
     24 C           1.1654    2.0927   -0.0235 C.3     1  UNL1        0.0067
     25 C          -0.0410    1.1603   -0.0012 C.2     1  UNL1        0.1395
     26 O          -0.0595   -0.0392   -0.0035 O.2     1  UNL1       -0.2968
     27 C          -1.4146    2.6251   -1.3914 C.3     1  UNL1       -0.0526
     28 C          -4.4238    5.7318   -0.0267 C.3     1  UNL1       -0.0556
     29 H          -9.0202    8.3819    4.4778 H       1  UNL1        0.0342
     30 H          -9.0718    7.5241    6.0366 H       1  UNL1        0.0342
     31 H          -7.9779    8.9115    5.8200 H       1  UNL1        0.0342
     32 H          -6.7916    5.8228    1.1014 H       1  UNL1        0.0301
     33 H          -7.5041    4.5877    2.1478 H       1  UNL1        0.0301
     34 H          -5.8196    3.5721    0.6562 H       1  UNL1        0.0275
     35 H          -5.3372    3.4463    2.3649 H       1  UNL1        0.0275
     36 H          -2.9709    2.4146    2.4155 H       1  UNL1        0.0269
     37 H          -4.3686    2.2052    1.3383 H       1  UNL1        0.0269
     38 H          -2.2758    0.5820    1.1373 H       1  UNL1        0.0275
     39 H          -3.1277    1.1330   -0.3214 H       1  UNL1        0.0275
     40 H          -1.6337    3.9618    3.2478 H       1  UNL1        0.0310
     41 H          -0.6094    5.3152    2.7293 H       1  UNL1        0.0310
     42 H          -2.5031    6.5062    3.7147 H       1  UNL1        0.0572
     43 H          -5.1148    7.4911    2.1042 H       1  UNL1        0.0346
     44 H          -4.5470    7.2156    3.7676 H       1  UNL1        0.0346
     45 H           1.3020    3.9059    1.1911 H       1  UNL1        0.0272
     46 H           0.5888    4.1742   -0.4246 H       1  UNL1        0.0272
     47 H           1.8740    1.7818    0.6099 H       1  UNL1        0.0342
     48 H           1.5781    2.1470   -1.0310 H       1  UNL1        0.0342
     49 H          -1.4681    1.7880   -2.0875 H       1  UNL1        0.0239
     50 H          -2.3343    3.2071   -1.4518 H       1  UNL1        0.0239
     51 H          -0.5661    3.2587   -1.6495 H       1  UNL1        0.0239
     52 H          -4.7367    5.1022   -0.8596 H       1  UNL1        0.0238
     53 H          -5.2027    6.4633    0.1885 H       1  UNL1        0.0238
     54 H          -3.5014    6.2498   -0.2893 H       1  UNL1        0.0238
@<TRIPOS>BOND
     1     1     2    1
     2     1    29    1
     3     1    30    1
     4     1    31    1
     5     2     3    2
     6     2     4    1
     7     4     5    1
     8     5     6    1
     9     5    22    1
    10     5     7    1
    11     7     8    1
    12     7    32    1
    13     7    33    1
    14     8     9    1
    15     8    34    1
    16     8    35    1
    17     9    21    1
    18     9    10    1
    19     9    28    1
    20    10    11    1
    21    10    17    1
    22    10    12    1
    23    12    13    1
    24    12    36    1
    25    12    37    1
    26    13    14    1
    27    13    38    1
    28    13    39    1
    29    14    25    1
    30    14    15    1
    31    14    27    1
    32    15    16    1
    33    15    17    1
    34    15    23    1
    35    17    18    1
    36    17    19    1
    37    19    20    1
    38    19    40    1
    39    19    41    1
    40    20    21    2
    41    20    42    1
    42    21    22    1
    43    22    43    1
    44    22    44    1
    45    23    24    1
    46    23    45    1
    47    23    46    1
    48    24    25    1
    49    24    47    1
    50    24    48    1
    51    25    26    2
    52    27    49    1
    53    27    50    1
    54    27    51    1
    55    28    52    1
    56    28    53    1
    57    28    54    1
