@<TRIPOS>MOLECULE
ZINC03830675
 71 74 0 0 0
SMALL
GASTEIGER

@<TRIPOS>ATOM
      1 C           3.0922   14.8425   -4.0376 C.3     1  UNL1       -0.0653
      2 C           2.1112   13.6794   -3.8778 C.3     1  UNL1       -0.0554
      3 C           2.7623   12.5739   -3.0442 C.3     1  UNL1       -0.0432
      4 C           1.7812   11.4107   -2.8843 C.3     1  UNL1        0.0449
      5 C           2.4225   10.3219   -2.0633 C.2     1  UNL1        0.3075
      6 O           3.5487   10.4618   -1.6485 O.2     1  UNL1       -0.2508
      7 O           1.7427    9.1966   -1.7927 O.3     1  UNL1       -0.4568
      8 C           2.4228    8.1908   -0.9965 C.3     1  UNL1        0.1530
      9 C           1.5114    7.0074   -0.7966 C.2     1  UNL1        0.2024
     10 O           0.4029    7.0113   -1.2758 O.2     1  UNL1       -0.2907
     11 C           1.9827    5.8204    0.0004 C.3     1  UNL1        0.1351
     12 C           0.9960    5.5174    1.1544 C.3     1  UNL1       -0.0071
     13 H           1.4892    5.6694    2.1163 H       1  UNL1        0.0330
     14 C           0.5869    4.0251    1.0030 C.3     1  UNL1       -0.0436
     15 C           1.7508    3.4553    0.1752 C.3     1  UNL1       -0.0263
     16 H           2.6456    3.4529    0.8433 H       1  UNL1        0.0311
     17 C           1.9526    4.5545   -0.8830 C.3     1  UNL1        0.0096
     18 C           3.1975    4.3286   -1.7027 C.3     1  UNL1       -0.0151
     19 C           3.6235    2.8483   -1.6808 C.3     1  UNL1        0.0910
     20 H           4.2235    2.6681   -0.7821 H       1  UNL1        0.0626
     21 C           2.4101    1.9439   -1.7004 C.3     1  UNL1        0.1526
     22 C           1.6121    2.0899   -0.3977 C.3     1  UNL1        0.0003
     23 H           2.0565    1.3730    0.3306 H       1  UNL1        0.0336
     24 C           0.1959    1.5939   -0.6833 C.3     1  UNL1       -0.0432
     25 C           0.2719    0.0763   -0.8673 C.3     1  UNL1       -0.0301
     26 C           1.6237   -0.3996   -1.3242 C.2     1  UNL1       -0.0532
     27 C           1.8850   -1.7165   -1.1833 C.2     1  UNL1       -0.0148
     28 C           3.2055   -2.2218   -1.6191 C.2     1  UNL1        0.1787
     29 O           3.3552   -3.3794   -2.0004 O.2     1  UNL1       -0.2879
     30 C           4.3446   -1.2770   -1.5830 C.2     1  UNL1       -0.0180
     31 C           4.0646    0.0371   -1.6269 C.2     1  UNL1       -0.0674
     32 C           2.6732    0.4791   -1.9266 C.3     1  UNL1        0.0443
     33 C           2.5041    0.2902   -3.4371 C.3     1  UNL1       -0.0493
     34 F           1.5916    2.3284   -2.7646 F       1  UNL1       -0.2377
     35 O           4.4404    2.5987   -2.8317 O.3     1  UNL1       -0.3886
     36 C           0.7342    4.6925   -1.8039 C.3     1  UNL1       -0.0562
     37 C          -0.2352    6.4190    1.0605 C.3     1  UNL1       -0.0594
     38 O           3.2952    6.0389    0.5055 O.3     1  UNL1       -0.3801
     39 H           2.6283   15.6301   -4.6314 H       1  UNL1        0.0230
     40 H           3.3538   15.2348   -3.0548 H       1  UNL1        0.0230
     41 H           3.9933   14.4913   -4.5403 H       1  UNL1        0.0230
     42 H           1.8495   13.2871   -4.8605 H       1  UNL1        0.0263
     43 H           1.2100   14.0306   -3.3750 H       1  UNL1        0.0263
     44 H           3.0239   12.9662   -2.0614 H       1  UNL1        0.0270
     45 H           3.6634   12.2227   -3.5469 H       1  UNL1        0.0270
     46 H           1.5196   11.0185   -3.8671 H       1  UNL1        0.0377
     47 H           0.8801   11.7619   -2.3816 H       1  UNL1        0.0377
     48 H           2.6661    8.5781   -0.1072 H       1  UNL1        0.0779
     49 H           3.3275    7.8695   -1.5126 H       1  UNL1        0.0779
     50 H          -0.3663    3.9261    0.4985 H       1  UNL1        0.0272
     51 H           0.5533    3.5453    1.9848 H       1  UNL1        0.0272
     52 H           3.0049    4.6329   -2.7400 H       1  UNL1        0.0297
     53 H           4.0226    4.9494   -1.3350 H       1  UNL1        0.0297
     54 H          -0.1942    2.0492   -1.5956 H       1  UNL1        0.0272
     55 H          -0.4696    1.8312    0.1465 H       1  UNL1        0.0272
     56 H           0.0233   -0.4055    0.0806 H       1  UNL1        0.0310
     57 H          -0.4731   -0.2268   -1.6094 H       1  UNL1        0.0310
     58 H           1.1350   -2.3916   -0.7647 H       1  UNL1        0.0656
     59 H           5.3743   -1.6316   -1.5172 H       1  UNL1        0.0653
     60 H           4.8732    0.7573   -1.5195 H       1  UNL1        0.0583
     61 H           1.4995    0.5942   -3.7311 H       1  UNL1        0.0242
     62 H           3.2373    0.9009   -3.9640 H       1  UNL1        0.0242
     63 H           2.6553   -0.7589   -3.6913 H       1  UNL1        0.0242
     64 H           5.2348    3.1482   -2.8768 H       1  UNL1        0.2099
     65 H          -0.1168    5.0566   -1.2283 H       1  UNL1        0.0236
     66 H           0.9609    5.3981   -2.6031 H       1  UNL1        0.0236
     67 H           0.4925    3.7209   -2.2347 H       1  UNL1        0.0236
     68 H          -0.9246    6.1781    1.8698 H       1  UNL1        0.0233
     69 H           0.0710    7.4619    1.1426 H       1  UNL1        0.0233
     70 H          -0.7299    6.2599    0.1024 H       1  UNL1        0.0233
     71 H           3.3648    6.7932    1.1065 H       1  UNL1        0.2108
@<TRIPOS>BOND
     1     1     2    1
     2     1    39    1
     3     1    40    1
     4     1    41    1
     5     2     3    1
     6     2    42    1
     7     2    43    1
     8     3     4    1
     9     3    44    1
    10     3    45    1
    11     4     5    1
    12     4    46    1
    13     4    47    1
    14     5     6    2
    15     5     7    1
    16     7     8    1
    17     8     9    1
    18     8    48    1
    19     8    49    1
    20     9    10    2
    21     9    11    1
    22    11    17    1
    23    11    12    1
    24    11    38    1
    25    12    13    1
    26    12    14    1
    27    12    37    1
    28    14    15    1
    29    14    50    1
    30    14    51    1
    31    15    16    1
    32    15    22    1
    33    15    17    1
    34    17    18    1
    35    17    36    1
    36    18    19    1
    37    18    52    1
    38    18    53    1
    39    19    20    1
    40    19    21    1
    41    19    35    1
    42    21    32    1
    43    21    22    1
    44    21    34    1
    45    22    23    1
    46    22    24    1
    47    24    25    1
    48    24    54    1
    49    24    55    1
    50    25    26    1
    51    25    56    1
    52    25    57    1
    53    26    32    1
    54    26    27    2
    55    27    28    1
    56    27    58    1
    57    28    29    2
    58    28    30    1
    59    30    31    2
    60    30    59    1
    61    31    32    1
    62    31    60    1
    63    32    33    1
    64    33    61    1
    65    33    62    1
    66    33    63    1
    67    35    64    1
    68    36    65    1
    69    36    66    1
    70    36    67    1
    71    37    68    1
    72    37    69    1
    73    37    70    1
    74    38    71    1
