@<TRIPOS>MOLECULE
ZINC03831503
 31 33 0 0 0
SMALL
GASTEIGER

@<TRIPOS>ATOM
      1 C           3.0606    4.4429   -0.7104 C.3     1  UNL1       -0.0360
      2 C           1.9357    3.8317   -1.5483 C.3     1  UNL1        0.1300
      3 C           1.7348    2.3237   -1.2235 C.3     1  UNL1        0.0936
      4 H           2.7095    1.8520   -1.0986 H       1  UNL1        0.0585
      5 N           0.9535    2.1454    0.0045 N.am    1  UNL1       -0.2685
      6 C          -0.0069    3.2119    0.3188 C.3     1  UNL1        0.1535
      7 H           0.0298    3.6133    1.3315 H       1  UNL1        0.0750
      8 S           0.2765    4.4493   -1.0135 S.O2    1  UNL1       -0.0024
      9 O           0.4172    5.7401   -0.4363 O.2     1  UNL1       -0.1719
     10 O          -0.6634    4.2421   -2.0590 O.2     1  UNL1       -0.1719
     11 C          -1.1199    2.2219    0.0180 C.3     1  UNL1        0.0629
     12 C          -0.0144    1.2086    0.0087 C.2     1  UNL1        0.2210
     13 O           0.0021   -0.0041    0.0020 O.2     1  UNL1       -0.2754
     14 C           1.0109    1.6655   -2.3697 C.2     1  UNL1        0.0644
     15 O          -0.1656    1.4081   -2.2732 O.co2   1  UNL1       -0.5478
     16 C           2.1675    4.0594   -3.0433 C.3     1  UNL1        0.0701
     17 N           2.4687    5.4733   -3.2810 N.ar    1  UNL1       -0.2496
     18 C           3.5625    5.9551   -3.9153 C.ar    1  UNL1        0.0455
     19 C           3.4374    7.3028   -3.9117 C.ar    1  UNL1        0.0693
     20 N           2.2883    7.5760   -3.2836 N.ar    1  UNL1       -0.1380
     21 N           1.7356    6.4704   -2.9272 N.ar    1  UNL1       -0.0657
     22 H           3.9937    3.9190   -0.9175 H       1  UNL1        0.0252
     23 H           3.1715    5.4970   -0.9648 H       1  UNL1        0.0252
     24 H           2.8179    4.3482    0.3480 H       1  UNL1        0.0252
     25 H          -1.5953    2.3693   -0.9517 H       1  UNL1        0.0393
     26 H          -1.8330    2.0937    0.8323 H       1  UNL1        0.0393
     27 H           3.0054    3.4481   -3.3784 H       1  UNL1        0.0532
     28 H           1.2705    3.7811   -3.5966 H       1  UNL1        0.0532
     29 H           4.3726    5.3801   -4.3389 H       1  UNL1        0.0842
     30 H           4.1293    8.0172   -4.3327 H       1  UNL1        0.0864
     31 O           1.6733    1.3653   -3.4979 O.co2   1  UNL1       -0.5478
@<TRIPOS>UNITY_ATOM_ATTR
31 1
charge -1
@<TRIPOS>BOND
     1     1     2    1
     2     1    22    1
     3     1    23    1
     4     1    24    1
     5     2     8    1
     6     2     3    1
     7     2    16    1
     8     3     4    1
     9     3     5    1
    10     3    14    1
    11     5    12   am
    12     5     6    1
    13     6     7    1
    14     6     8    1
    15     6    11    1
    16     8     9    2
    17     8    10    2
    18    11    12    1
    19    11    25    1
    20    11    26    1
    21    12    13    2
    22    14    15   ar
    23    14    31   ar
    24    16    17    1
    25    16    27    1
    26    16    28    1
    27    17    21   ar
    28    17    18   ar
    29    18    19   ar
    30    18    29    1
    31    19    20   ar
    32    19    30    1
    33    20    21   ar
