@<TRIPOS>MOLECULE
ZINC03978074
 32 33 0 0 0
SMALL
GASTEIGER

@<TRIPOS>ATOM
      1 C          -1.2866   -0.7852    0.0096 C.3     1  UNL1       -0.0332
      2 C           0.0021   -0.0041    0.0020 C.ar    1  UNL1        0.0302
      3 C           1.1904   -0.6449   -0.0128 C.ar    1  UNL1        0.0199
      4 N           2.3511    0.0798   -0.0200 N.ar    1  UNL1       -0.2737
      5 C           2.3192    1.4248   -0.0124 C.ar    1  UNL1        0.3313
      6 O           3.3625    2.0491   -0.0190 O.2     1  UNL1       -0.2464
      7 N           1.1486    2.0891    0.0023 N.ar    1  UNL1       -0.2747
      8 H           1.1435    3.0891    0.0077 H       1  UNL1        0.1734
      9 C          -0.0171    1.4115    0.0098 C.ar    1  UNL1        0.2568
     10 O          -1.0767    2.0117    0.0181 O.2     1  UNL1       -0.2674
     11 C           3.6405   -0.6154   -0.0365 C.3     1  UNL1        0.1420
     12 H           4.2127   -0.3542    0.8537 H       1  UNL1        0.0840
     13 C           4.4319   -0.2211   -1.3021 C.3     1  UNL1        0.0244
     14 C           5.0844   -1.5704   -1.7146 C.3     1  UNL1        0.1617
     15 H           6.0084   -1.7442   -1.1630 H       1  UNL1        0.0643
     16 C           3.9829   -2.5736   -1.2890 C.3     1  UNL1        0.1131
     17 H           3.2152   -2.6419   -2.0597 H       1  UNL1        0.0643
     18 O           3.4287   -2.0313   -0.0798 O.3     1  UNL1       -0.3486
     19 C           4.5911   -3.9520   -1.0230 C.3     1  UNL1        0.0727
     20 O           3.5530   -4.8731   -0.6826 O.3     1  UNL1       -0.3924
     21 N           5.3180   -1.6245   -3.1599 N.2     1  UNL1        0.0825
     22 N           6.1459   -1.0182   -3.6184 N.2     1  UNL1       -0.0144
     23 N           6.9739   -0.4118   -4.0770 N.2     1  UNL1       -0.3282
     24 H          -2.1300   -0.0948    0.0211 H       1  UNL1        0.0280
     25 H          -1.3392   -1.4082   -0.8833 H       1  UNL1        0.0280
     26 H          -1.3229   -1.4178    0.8966 H       1  UNL1        0.0280
     27 H           1.2247   -1.7243   -0.0193 H       1  UNL1        0.0816
     28 H           3.7614    0.1397   -2.0821 H       1  UNL1        0.0332
     29 H           5.1925    0.5236   -1.0677 H       1  UNL1        0.0332
     30 H           5.1070   -4.3004   -1.9177 H       1  UNL1        0.0584
     31 H           5.3005   -3.8831   -0.1982 H       1  UNL1        0.0584
     32 H           3.8666   -5.7695   -0.5003 H       1  UNL1        0.2095
@<TRIPOS>UNITY_ATOM_ATTR
22 1
charge 1
23 1
charge -1
@<TRIPOS>BOND
     1     1     2    1
     2     1    24    1
     3     1    25    1
     4     1    26    1
     5     2     9   ar
     6     2     3   ar
     7     3     4   ar
     8     3    27    1
     9     4     5   ar
    10     4    11    1
    11     5     6    2
    12     5     7   ar
    13     7     8    1
    14     7     9   ar
    15     9    10    2
    16    11    12    1
    17    11    18    1
    18    11    13    1
    19    13    14    1
    20    13    28    1
    21    13    29    1
    22    14    15    1
    23    14    16    1
    24    14    21    1
    25    16    17    1
    26    16    18    1
    27    16    19    1
    28    19    20    1
    29    19    30    1
    30    19    31    1
    31    20    32    1
    32    21    22    2
    33    22    23    2
