@<TRIPOS>MOLECULE
ZINC00896569
 25 26 0 0 0
SMALL
GASTEIGER

@<TRIPOS>ATOM
      1 C           0.8351   -2.0718    0.8832 C.ar    1  UNL1       -0.0187
      2 C           0.0521   -2.7825   -0.0252 C.ar    1  UNL1        0.0563
      3 C          -0.7604   -2.0822   -0.9066 C.ar    1  UNL1        0.1280
      4 C          -0.7843   -0.7031   -0.8955 C.ar    1  UNL1       -0.0057
      5 C           0.0021   -0.0041    0.0020 C.ar    1  UNL1        0.1252
      6 C           0.8123   -0.6919    0.8889 C.ar    1  UNL1        0.0691
      7 CL          1.7991    0.1845    2.0168 Cl      1  UNL1       -0.0815
      8 S          -0.0218    1.7577    0.0117 S.O2    1  UNL1        0.0574
      9 O           1.3342    2.1824    0.0010 O.2     1  UNL1       -0.1532
     10 O          -0.9529    2.1568   -0.9848 O.2     1  UNL1       -0.1532
     11 N          -0.6545    2.2308    1.4671 N.3     1  UNL1       -0.2035
     12 S          -1.7807   -2.9707   -2.0441 S.O2    1  UNL1        0.0616
     13 O          -3.1051   -2.9331   -1.5307 O.2     1  UNL1       -0.1529
     14 O          -1.4465   -2.5124   -3.3470 O.2     1  UNL1       -0.1529
     15 N          -1.2603   -4.5520   -1.9353 N.3     1  UNL1       -0.1728
     16 C          -0.9265   -5.0287   -0.5778 C.3     1  UNL1        0.0798
     17 N           0.1209   -4.1731   -0.0257 N.pl3   1  UNL1       -0.3284
     18 H           1.4647   -2.6027    1.5819 H       1  UNL1        0.0652
     19 H          -1.4173   -0.1687   -1.5884 H       1  UNL1        0.0658
     20 H          -0.3784    3.0709    1.8659 H       1  UNL1        0.1442
     21 H          -1.3012    1.6679    1.9208 H       1  UNL1        0.1442
     22 H          -1.1822   -5.1232   -2.7154 H       1  UNL1        0.1498
     23 H          -1.8121   -4.9778    0.0557 H       1  UNL1        0.0644
     24 H          -0.5720   -6.0582   -0.6286 H       1  UNL1        0.0644
     25 H           0.9044   -4.5953    0.3599 H       1  UNL1        0.1474
@<TRIPOS>BOND
     1     1     6   ar
     2     1     2   ar
     3     1    18    1
     4     2    17    1
     5     2     3   ar
     6     3     4   ar
     7     3    12    1
     8     4     5   ar
     9     4    19    1
    10     5     6   ar
    11     5     8    1
    12     6     7    1
    13     8     9    2
    14     8    10    2
    15     8    11    1
    16    11    20    1
    17    11    21    1
    18    12    13    2
    19    12    14    2
    20    12    15    1
    21    15    16    1
    22    15    22    1
    23    16    17    1
    24    16    23    1
    25    16    24    1
    26    17    25    1
