@<TRIPOS>MOLECULE
ZINC03831438
 73 77 0 0 0
SMALL
GASTEIGER

@<TRIPOS>ATOM
      1 C          -2.0004    6.2485   -3.9195 C.3     1  UNL1       -0.0313
      2 C          -2.5373    6.5246   -2.5137 C.3     1  UNL1        0.0959
      3 C          -2.4201    7.9925   -2.2032 C.ar    1  UNL1       -0.0015
      4 C          -3.4879    8.8384   -2.4160 C.ar    1  UNL1       -0.0549
      5 C          -3.3613   10.1963   -2.1742 C.ar    1  UNL1       -0.0579
      6 C          -2.1651   10.7191   -1.7230 C.ar    1  UNL1       -0.0194
      7 C          -1.0830    9.8810   -1.4978 C.ar    1  UNL1        0.1280
      8 C          -1.2139    8.5058   -1.7217 C.ar    1  UNL1        0.0693
      9 C          -0.0778    7.5940   -1.4812 C.2     1  UNL1        0.1967
     10 O           1.0436    8.0347   -1.3038 O.2     1  UNL1       -0.2867
     11 C          -0.3165    6.1875   -1.4607 C.2     1  UNL1        0.0466
     12 C           0.7247    5.3568   -1.3856 C.2     1  UNL1        0.1409
     13 C           0.6107    3.8566   -1.3487 C.3     1  UNL1        0.1935
     14 C          -0.8195    3.4710   -0.9763 C.3     1  UNL1        0.0531
     15 H          -1.0012    3.7968    0.0479 H       1  UNL1        0.0397
     16 C          -1.7923    4.2244   -1.8796 C.3     1  UNL1       -0.0311
     17 C          -1.7422    5.7065   -1.4983 C.3     1  UNL1        0.0244
     18 H          -2.1871    5.8350   -0.5115 H       1  UNL1        0.0382
     19 C          -1.0329    1.9711   -1.0409 C.3     1  UNL1        0.0441
     20 H          -2.0968    1.7602   -0.9331 H       1  UNL1        0.0939
     21 C          -0.5496    1.3869   -2.3344 C.2     1  UNL1        0.1579
     22 C           0.3651    2.0292   -3.1311 C.2     1  UNL1        0.1252
     23 C           0.8839    3.3419   -2.7496 C.2     1  UNL1        0.2108
     24 O           1.5218    4.0075   -3.5391 O.2     1  UNL1       -0.2882
     25 C           0.8257    1.3936   -4.3759 C.2     1  UNL1        0.2547
     26 O           0.3841    1.7636   -5.4472 O.2     1  UNL1       -0.2698
     27 N           1.7368    0.4016   -4.3289 N.am    1  UNL1       -0.2732
     28 C           2.2715   -0.1613   -5.5713 C.3     1  UNL1        0.0382
     29 C           4.3274    0.7964   -4.6857 C.3     1  UNL1       -0.0302
     30 C           5.7650    0.9857   -5.2316 C.3     1  UNL1       -0.0077
     31 C           5.8496   -0.0713   -6.3565 C.3     1  UNL1       -0.0077
     32 C           4.3884   -0.3613   -6.7466 C.3     1  UNL1       -0.0302
     33 O          -1.0276    0.1967   -2.7265 O.2     1  UNL1       -0.5050
     34 C          -0.8731    1.7381    1.3639 C.3     1  UNL1       -0.0427
     35 C          -0.2994   -0.1239   -0.0736 C.3     1  UNL1       -0.0427
     36 O           1.5474    3.3057   -0.4207 O.3     1  UNL1       -0.3731
     37 O           1.9589    5.8980   -1.3563 O.2     1  UNL1       -0.5073
     38 O           0.0961   10.3917   -1.0622 O.3     1  UNL1       -0.5060
     39 O          -3.9141    6.1470   -2.4525 O.3     1  UNL1       -0.3836
     40 H          -2.1036    5.1872   -4.1459 H       1  UNL1        0.0261
     41 H          -2.5667    6.8316   -4.6457 H       1  UNL1        0.0261
     42 H          -0.9485    6.5299   -3.9685 H       1  UNL1        0.0261
     43 H          -4.4265    8.4407   -2.7728 H       1  UNL1        0.0621
     44 H          -4.2040   10.8512   -2.3401 H       1  UNL1        0.0619
     45 H          -2.0724   11.7804   -1.5452 H       1  UNL1        0.0654
     46 H          -1.4973    4.1020   -2.9218 H       1  UNL1        0.0278
     47 H          -2.8021    3.8406   -1.7345 H       1  UNL1        0.0278
     48 H           2.0385    0.0604   -3.4725 H       1  UNL1        0.1540
     49 H           2.4499   -1.2285   -5.4394 H       1  UNL1        0.1041
     50 H           1.5536   -0.0098   -6.3773 H       1  UNL1        0.1041
     51 H           3.9751    1.7091   -4.2051 H       1  UNL1        0.0815
     52 H           4.2863   -0.0446   -3.9936 H       1  UNL1        0.0815
     53 H           6.5023    0.7823   -4.4550 H       1  UNL1        0.0319
     54 H           5.8953    1.9898   -5.6352 H       1  UNL1        0.0319
     55 H           6.3299   -0.9779   -5.9885 H       1  UNL1        0.0319
     56 H           6.3970    0.3279   -7.2104 H       1  UNL1        0.0319
     57 H           4.1536   -1.4083   -6.5547 H       1  UNL1        0.0815
     58 H           4.2299   -0.1326   -7.8005 H       1  UNL1        0.0815
     59 H          -0.6139   -0.0570   -3.6008 H       1  UNL1        0.2919
     60 H          -0.3497    1.2170    2.1655 H       1  UNL1        0.0778
     61 H          -0.7577    2.8142    1.4941 H       1  UNL1        0.0778
     62 H          -1.9317    1.4800    1.3932 H       1  UNL1        0.0778
     63 H          -1.3248   -0.4886   -0.1337 H       1  UNL1        0.0778
     64 H           0.2375   -0.3978   -0.9818 H       1  UNL1        0.0778
     65 H           0.1949   -0.5702    0.7893 H       1  UNL1        0.0778
     66 H           2.4635    3.5689   -0.5835 H       1  UNL1        0.2113
     67 H           2.6412    5.1691   -1.2999 H       1  UNL1        0.2918
     68 H           0.6987   10.6512   -1.7726 H       1  UNL1        0.2922
     69 H          -4.4814    6.6267   -3.0715 H       1  UNL1        0.2106
     70 N           3.5625    0.5100   -5.9095 N.4     1  UNL1        0.2486
     71 H           3.3660    1.3856   -6.4086 H       1  UNL1        0.2050
     72 N          -0.2800    1.3473    0.0677 N.4     1  UNL1        0.2388
     73 H           0.6932    1.6727    0.0345 H       1  UNL1        0.2035
@<TRIPOS>UNITY_ATOM_ATTR
70 1
charge 1
72 1
charge 1
@<TRIPOS>BOND
     1     1     2    1
     2     1    40    1
     3     1    41    1
     4     1    42    1
     5     2    17    1
     6     2     3    1
     7     2    39    1
     8     3     8   ar
     9     3     4   ar
    10     4     5   ar
    11     4    43    1
    12     5     6   ar
    13     5    44    1
    14     6     7   ar
    15     6    45    1
    16     7     8   ar
    17     7    38    1
    18     8     9    1
    19     9    10    2
    20     9    11    1
    21    11    17    1
    22    11    12    2
    23    12    13    1
    24    12    37    1
    25    13    23    1
    26    13    14    1
    27    13    36    1
    28    14    15    1
    29    14    16    1
    30    14    19    1
    31    16    17    1
    32    16    46    1
    33    16    47    1
    34    17    18    1
    35    19    20    1
    36    19    21    1
    37    19    72    1
    38    21    22    2
    39    21    33    1
    40    22    23    1
    41    22    25    1
    42    23    24    2
    43    25    26    2
    44    25    27   am
    45    27    28    1
    46    27    48    1
    47    28    49    1
    48    28    50    1
    49    28    70    1
    50    29    30    1
    51    29    51    1
    52    29    52    1
    53    29    70    1
    54    30    31    1
    55    30    53    1
    56    30    54    1
    57    31    32    1
    58    31    55    1
    59    31    56    1
    60    32    57    1
    61    32    58    1
    62    32    70    1
    63    33    59    1
    64    34    60    1
    65    34    61    1
    66    34    62    1
    67    34    72    1
    68    35    63    1
    69    35    64    1
    70    35    65    1
    71    35    72    1
    72    36    66    1
    73    37    67    1
    74    38    68    1
    75    39    69    1
    76    70    71    1
    77    72    73    1
