@<TRIPOS>MOLECULE
ZINC03831141
 70 72 0 0 0
SMALL
GASTEIGER

@<TRIPOS>ATOM
      1 C           3.5842    1.9838    0.0020 C.3     1  UNL1       -0.0306
      2 C           2.3731    1.0489    0.0079 C.3     1  UNL1        0.0899
      3 O           1.1535    1.8369    0.0150 O.3     1  UNL1       -0.4610
      4 C          -0.0074    1.1630    0.0208 C.2     1  UNL1        0.3560
      5 O          -0.0045   -0.0453    0.0199 O.2     1  UNL1       -0.2444
      6 C          -1.3142    1.9134    0.0221 C.3     1  UNL1        0.0770
      7 H          -1.3740    2.5406   -0.8674 H       1  UNL1        0.0969
      8 C          -1.3966    2.7919    1.2720 C.3     1  UNL1        0.0048
      9 C          -2.6643    3.6465    1.2121 C.3     1  UNL1       -0.0220
     10 C          -2.7454    4.5118    2.4433 C.ar    1  UNL1       -0.0471
     11 C          -3.3955    4.0487    3.5719 C.ar    1  UNL1       -0.0586
     12 C          -3.4661    4.8407    4.7027 C.ar    1  UNL1       -0.0615
     13 C          -2.8946    6.0994    4.7018 C.ar    1  UNL1       -0.0617
     14 C          -2.2491    6.5645    3.5714 C.ar    1  UNL1       -0.0615
     15 C          -2.1747    5.7708    2.4420 C.ar    1  UNL1       -0.0586
     16 CA         -2.7508    0.5235   -1.3443 C.3     1  UNL1        0.0531
     17 HA         -2.6000    1.3543   -2.0336 H       1  UNL1        0.0947
     18 CB         -1.8382   -0.6392   -1.7396 C.3     1  UNL1       -0.0129
     19 C          -4.1886    0.0762   -1.4036 C.2     1  UNL1        0.2643
     20 O          -4.8771    0.1141   -0.4059 O.2     1  UNL1       -0.2694
     21 N          -4.7094   -0.3660   -2.5654 N.am    1  UNL1       -0.2840
     22 C          -3.9464   -0.3031   -3.8164 C.3     1  UNL1        0.0409
     23 C          -4.8250    0.2053   -4.9271 C.ar    1  UNL1       -0.0232
     24 C          -4.2162    0.5463   -6.1279 C.ar    1  UNL1       -0.0114
     25 C          -4.9703    1.0005   -7.1939 C.ar    1  UNL1        0.1618
     26 C          -6.3509    1.1166   -7.0584 C.ar    1  UNL1        0.1618
     27 C          -6.9512    0.7817   -5.8594 C.ar    1  UNL1       -0.0127
     28 C          -6.1894    0.3286   -4.7883 C.ar    1  UNL1       -0.0369
     29 C          -6.9142   -0.0063   -3.5110 C.3     1  UNL1       -0.0033
     30 CA         -6.0695   -0.9261   -2.6309 C.3     1  UNL1        0.0699
     31 HA         -6.0365   -1.9248   -3.0663 H       1  UNL1        0.0565
     32 C          -6.6607   -0.9928   -1.2463 C.2     1  UNL1        0.0625
     33 O          -7.3640   -0.0957   -0.8458 O.co2   1  UNL1       -0.5479
     34 O          -7.1052    1.5568   -8.1008 O.3     1  UNL1       -0.4914
     35 C          -8.5152    1.6500   -7.8875 C.3     1  UNL1        0.0790
     36 O          -4.3675    1.3313   -8.3672 O.3     1  UNL1       -0.4914
     37 C          -2.9474    1.1854   -8.4306 C.3     1  UNL1        0.0790
     38 H           3.5531    2.6132   -0.8873 H       1  UNL1        0.0262
     39 H           3.5627    2.6119    0.8926 H       1  UNL1        0.0262
     40 H           4.4998    1.3923   -0.0033 H       1  UNL1        0.0262
     41 H           2.4042    0.4195    0.8972 H       1  UNL1        0.0694
     42 H           2.3946    0.4208   -0.8827 H       1  UNL1        0.0694
     43 H          -1.4264    2.1595    2.1593 H       1  UNL1        0.0329
     44 H          -0.5224    3.4414    1.3179 H       1  UNL1        0.0329
     45 H          -2.6346    4.2789    0.3249 H       1  UNL1        0.0315
     46 H          -3.5385    2.9970    1.1662 H       1  UNL1        0.0315
     47 H          -3.8453    3.0668    3.5714 H       1  UNL1        0.0620
     48 H          -3.9702    4.4772    5.5860 H       1  UNL1        0.0618
     49 H          -2.9521    6.7192    5.5843 H       1  UNL1        0.0618
     50 H          -1.8026    7.5479    3.5706 H       1  UNL1        0.0618
     51 H          -1.6704    6.1342    1.5589 H       1  UNL1        0.0620
     52 HB1        -2.0773   -0.9602   -2.7535 H       1  UNL1        0.0289
     53 HB2        -0.7982   -0.3156   -1.6968 H       1  UNL1        0.0289
     54 HB3        -1.9889   -1.4700   -1.0504 H       1  UNL1        0.0289
     55 H          -3.0974    0.3687   -3.6900 H       1  UNL1        0.0514
     56 H          -3.5849   -1.2993   -4.0713 H       1  UNL1        0.0514
     57 H          -3.1448    0.4557   -6.2299 H       1  UNL1        0.0659
     58 H          -8.0222    0.8722   -5.7537 H       1  UNL1        0.0658
     59 H          -7.8535   -0.5040   -3.7518 H       1  UNL1        0.0335
     60 H          -7.1257    0.9147   -2.9677 H       1  UNL1        0.0335
     61 H          -8.9103    0.6660   -7.6350 H       1  UNL1        0.0660
     62 H          -8.7139    2.3422   -7.0693 H       1  UNL1        0.0660
     63 H          -8.9968    2.0129   -8.7955 H       1  UNL1        0.0660
     64 H          -2.4830    1.8180   -7.6742 H       1  UNL1        0.0660
     65 H          -2.6805    0.1445   -8.2475 H       1  UNL1        0.0660
     66 H          -2.5954    1.4822   -9.4186 H       1  UNL1        0.0660
     67 N          -2.4336    0.9528    0.0308 N.4     1  UNL1        0.2457
     68 H1         -3.2600    1.3995    0.4453 H       1  UNL1        0.2030
     69 H2         -2.1715    0.1324    0.5898 H       1  UNL1        0.2030
     70 OXT        -6.4060   -2.0490   -0.4580 O.co2   1  UNL1       -0.5479
@<TRIPOS>UNITY_ATOM_ATTR
67 1
charge 1
70 1
charge -1
@<TRIPOS>BOND
     1     1     2    1
     2     1    38    1
     3     1    39    1
     4     1    40    1
     5     2     3    1
     6     2    41    1
     7     2    42    1
     8     3     4    1
     9     4     5    2
    10     4     6    1
    11     6     7    1
    12     6     8    1
    13     6    67    1
    14     8     9    1
    15     8    43    1
    16     8    44    1
    17     9    10    1
    18     9    45    1
    19     9    46    1
    20    10    15   ar
    21    10    11   ar
    22    11    12   ar
    23    11    47    1
    24    12    13   ar
    25    12    48    1
    26    13    14   ar
    27    13    49    1
    28    14    15   ar
    29    14    50    1
    30    15    51    1
    31    16    17    1
    32    16    18    1
    33    16    19    1
    34    16    67    1
    35    18    52    1
    36    18    53    1
    37    18    54    1
    38    19    20    2
    39    19    21   am
    40    21    30    1
    41    21    22    1
    42    22    23    1
    43    22    55    1
    44    22    56    1
    45    23    28   ar
    46    23    24   ar
    47    24    25   ar
    48    24    57    1
    49    25    26   ar
    50    25    36    1
    51    26    27   ar
    52    26    34    1
    53    27    28   ar
    54    27    58    1
    55    28    29    1
    56    29    30    1
    57    29    59    1
    58    29    60    1
    59    30    31    1
    60    30    32    1
    61    32    33   ar
    62    32    70   ar
    63    34    35    1
    64    35    61    1
    65    35    62    1
    66    35    63    1
    67    36    37    1
    68    37    64    1
    69    37    65    1
    70    37    66    1
    71    67    68    1
    72    67    69    1
