@<TRIPOS>MOLECULE
ZINC00896870
 29 30 0 0 0
SMALL
GASTEIGER

@<TRIPOS>ATOM
      1 C           3.3174   -1.5063   -2.3724 C.3     1  UNL1       -0.0189
      2 C           4.2690   -0.7271   -1.4624 C.3     1  UNL1        0.0056
      3 H           4.3686    0.2947   -1.8286 H       1  UNL1        0.0877
      4 C           3.7112   -0.7071   -0.0368 C.3     1  UNL1        0.1259
      5 H           3.5605   -1.7294    0.3101 H       1  UNL1        0.0703
      6 O           4.6402   -0.0428    0.8240 O.3     1  UNL1       -0.3611
      7 C           5.9345   -0.6505    0.8527 C.3     1  UNL1        0.0885
      8 C           6.5148   -0.6699   -0.5639 C.3     1  UNL1       -0.0093
      9 C           2.3960    0.0285   -0.0212 C.ar    1  UNL1       -0.0135
     10 C           1.2084   -0.6789   -0.0132 C.ar    1  UNL1       -0.0559
     11 C           0.0021   -0.0041    0.0020 C.ar    1  UNL1       -0.0614
     12 C          -0.0167    1.3781    0.0096 C.ar    1  UNL1       -0.0617
     13 C           1.1709    2.0855    0.0021 C.ar    1  UNL1       -0.0614
     14 C           2.3773    1.4107   -0.0145 C.ar    1  UNL1       -0.0559
     15 H           2.3391   -1.0256   -2.3721 H       1  UNL1        0.0285
     16 H           3.7151   -1.5202   -3.3872 H       1  UNL1        0.0285
     17 H           3.2201   -2.5284   -2.0064 H       1  UNL1        0.0285
     18 H           6.5912   -0.0775    1.5072 H       1  UNL1        0.0614
     19 H           5.8492   -1.6711    1.2257 H       1  UNL1        0.0614
     20 H           6.6503    0.3528   -0.9157 H       1  UNL1        0.0837
     21 H           7.4763   -1.1833   -0.5564 H       1  UNL1        0.0837
     22 H           1.2231   -1.7588   -0.0184 H       1  UNL1        0.0621
     23 H          -0.9258   -0.5567    0.0083 H       1  UNL1        0.0618
     24 H          -0.9592    1.9054    0.0170 H       1  UNL1        0.0618
     25 H           1.1563    3.1654    0.0077 H       1  UNL1        0.0618
     26 H           3.3051    1.9634   -0.0205 H       1  UNL1        0.0621
     27 N           5.5893   -1.3851   -1.4630 N.4     1  UNL1        0.2327
     28 H           5.9706   -1.3798   -2.4163 H       1  UNL1        0.2018
     29 H           5.4853   -2.3546   -1.1414 H       1  UNL1        0.2018
@<TRIPOS>UNITY_ATOM_ATTR
27 1
charge 1
@<TRIPOS>BOND
     1     1     2    1
     2     1    15    1
     3     1    16    1
     4     1    17    1
     5     2     3    1
     6     2     4    1
     7     2    27    1
     8     4     5    1
     9     4     6    1
    10     4     9    1
    11     6     7    1
    12     7     8    1
    13     7    18    1
    14     7    19    1
    15     8    20    1
    16     8    21    1
    17     8    27    1
    18     9    14   ar
    19     9    10   ar
    20    10    11   ar
    21    10    22    1
    22    11    12   ar
    23    11    23    1
    24    12    13   ar
    25    12    24    1
    26    13    14   ar
    27    13    25    1
    28    14    26    1
    29    27    28    1
    30    27    29    1
