@<TRIPOS>MOLECULE
ZINC02033589
 57 61 0 0 0
SMALL
GASTEIGER

@<TRIPOS>ATOM
      1 C           4.3468   16.1605    2.0166 C.3     1  UNL1        0.0790
      2 O           3.7467   15.9398    3.2946 O.3     1  UNL1       -0.4914
      3 C           2.9561   14.8409    3.4239 C.ar    1  UNL1        0.1616
      4 C           2.7625   13.9939    2.3445 C.ar    1  UNL1       -0.0095
      5 C           1.9589   12.8769    2.4779 C.ar    1  UNL1       -0.0000
      6 C           1.3425   12.6052    3.6852 C.ar    1  UNL1       -0.0513
      7 C           1.5361   13.4430    4.7676 C.ar    1  UNL1       -0.0161
      8 C           2.3403   14.5643    4.6407 C.ar    1  UNL1        0.1585
      9 O           2.5276   15.3923    5.7031 O.3     1  UNL1       -0.5033
     10 C           1.7494   11.9568    1.3029 C.3     1  UNL1        0.1642
     11 H           2.5972   12.0306    0.6217 H       1  UNL1        0.0823
     12 C           0.4591   12.3426    0.5670 C.3     1  UNL1        0.1639
     13 H          -0.3895   12.2626    1.2464 H       1  UNL1        0.0798
     14 O           0.2837   11.4425   -0.5325 O.3     1  UNL1       -0.4788
     15 C           0.4637   10.1184   -0.2741 C.ar    1  UNL1        0.1627
     16 C          -0.0252    9.1776   -1.1683 C.ar    1  UNL1       -0.0159
     17 C           0.1538    7.8296   -0.9220 C.ar    1  UNL1       -0.0513
     18 C           0.8202    7.4150    0.2162 C.ar    1  UNL1       -0.0007
     19 C           1.3043    8.3470    1.1144 C.ar    1  UNL1       -0.0095
     20 C           1.1322    9.7016    0.8708 C.ar    1  UNL1        0.1634
     21 O           1.6161   10.6078    1.7637 O.3     1  UNL1       -0.4768
     22 C           1.0135    5.9441    0.4810 C.3     1  UNL1        0.1582
     23 H           1.1341    5.7800    1.5518 H       1  UNL1        0.0815
     24 C           2.2661    5.4502   -0.2574 C.3     1  UNL1        0.1585
     25 H           2.1657    5.6238   -1.2371 H       1  UNL1        0.0718
     26 C           2.3912    3.9621    0.0165 C.2     1  UNL1        0.2024
     27 O           3.4664    3.4408    0.2295 O.2     1  UNL1       -0.2889
     28 C           1.1460    3.1866    0.0102 C.ar    1  UNL1        0.1033
     29 C           1.1762    1.7831    0.0004 C.ar    1  UNL1        0.1344
     30 C          -0.0126    1.0758    0.0080 C.ar    1  UNL1        0.0222
     31 C          -1.2257    1.7536    0.0174 C.ar    1  UNL1        0.1238
     32 C          -1.2618    3.1419    0.0280 C.ar    1  UNL1        0.0225
     33 C          -0.0845    3.8691    0.0186 C.ar    1  UNL1        0.1391
     34 O          -0.1259    5.2222    0.0138 O.3     1  UNL1       -0.4802
     35 O          -2.3868    1.0517    0.0216 O.3     1  UNL1       -0.5065
     36 O           2.3622    1.1255   -0.0168 O.3     1  UNL1       -0.5058
     37 O           3.4210    6.1353    0.2314 O.3     1  UNL1       -0.3798
     38 C           0.5710   13.7771    0.0467 C.3     1  UNL1        0.0850
     39 O          -0.6645   14.1616   -0.5598 O.3     1  UNL1       -0.3912
     40 H           4.9812   15.3117    1.7616 H       1  UNL1        0.0660
     41 H           3.5668   16.2704    1.2631 H       1  UNL1        0.0660
     42 H           4.9499   17.0678    2.0502 H       1  UNL1        0.0660
     43 H           3.2396   14.2061    1.3992 H       1  UNL1        0.0659
     44 H           0.7119   11.7340    3.7841 H       1  UNL1        0.0623
     45 H           1.0570   13.2260    5.7109 H       1  UNL1        0.0655
     46 H           1.8798   16.1077    5.7633 H       1  UNL1        0.2923
     47 H          -0.5459    9.4988   -2.0583 H       1  UNL1        0.0655
     48 H          -0.2278    7.0988   -1.6195 H       1  UNL1        0.0623
     49 H           1.8211    8.0205    2.0048 H       1  UNL1        0.0659
     50 H           0.0021   -0.0041    0.0020 H       1  UNL1        0.0691
     51 H          -2.2117    3.6557    0.0391 H       1  UNL1        0.0691
     52 H          -2.7183    0.8451    0.9062 H       1  UNL1        0.2921
     53 H           2.6968    0.9411   -0.9051 H       1  UNL1        0.2922
     54 H           4.2467    5.8683   -0.1953 H       1  UNL1        0.2105
     55 H           0.7928   14.4482    0.8765 H       1  UNL1        0.0595
     56 H           1.3713   13.8346   -0.6910 H       1  UNL1        0.0595
     57 H          -0.6659   15.0618   -0.9128 H       1  UNL1        0.2096
@<TRIPOS>BOND
     1     1     2    1
     2     1    40    1
     3     1    41    1
     4     1    42    1
     5     2     3    1
     6     3     8   ar
     7     3     4   ar
     8     4     5   ar
     9     4    43    1
    10     5     6   ar
    11     5    10    1
    12     6     7   ar
    13     6    44    1
    14     7     8   ar
    15     7    45    1
    16     8     9    1
    17     9    46    1
    18    10    11    1
    19    10    21    1
    20    10    12    1
    21    12    13    1
    22    12    14    1
    23    12    38    1
    24    14    15    1
    25    15    20   ar
    26    15    16   ar
    27    16    17   ar
    28    16    47    1
    29    17    18   ar
    30    17    48    1
    31    18    19   ar
    32    18    22    1
    33    19    20   ar
    34    19    49    1
    35    20    21    1
    36    22    23    1
    37    22    34    1
    38    22    24    1
    39    24    25    1
    40    24    26    1
    41    24    37    1
    42    26    27    2
    43    26    28    1
    44    28    33   ar
    45    28    29   ar
    46    29    30   ar
    47    29    36    1
    48    30    31   ar
    49    30    50    1
    50    31    32   ar
    51    31    35    1
    52    32    33   ar
    53    32    51    1
    54    33    34    1
    55    35    52    1
    56    36    53    1
    57    37    54    1
    58    38    39    1
    59    38    55    1
    60    38    56    1
    61    39    57    1
