@<TRIPOS>MOLECULE
ZINC03830417
 46 48 0 0 0
SMALL
GASTEIGER

@<TRIPOS>ATOM
      1 C           1.2689    2.4677   -0.5045 C.3     1  UNL1        0.0346
      2 N           0.9333    1.0511   -0.3400 N.ar    1  UNL1       -0.2233
      3 C           1.7920    0.0097   -0.2346 C.ar    1  UNL1        0.2094
      4 N           1.0654   -1.0788   -0.1023 N.ar    1  UNL1       -0.1015
      5 N          -0.1856   -0.7891   -0.1179 N.ar    1  UNL1       -0.0222
      6 N          -0.3495    0.4817   -0.2585 N.ar    1  UNL1       -0.0435
      7 S           3.5516    0.0960   -0.2694 S.3     1  UNL1       -0.0801
      8 C           3.9561   -1.6578   -0.0780 C.3     1  UNL1        0.0251
      9 C           5.4531   -1.8311   -0.0798 C.2     1  UNL1       -0.0264
     10 C           6.0135   -2.0115    1.1065 C.2     1  UNL1        0.0608
     11 N           7.3956   -2.2420    1.2085 N.am    1  UNL1       -0.2484
     12 C           8.4314   -1.9018    0.1817 C.3     1  UNL1        0.1320
     13 H           8.7600   -0.8628    0.1562 H       1  UNL1        0.0672
     14 C           9.3469   -2.8639    0.9313 C.3     1  UNL1        0.2424
     15 C           8.2708   -2.9191    2.0023 C.2     1  UNL1        0.2745
     16 O           8.2149   -3.3757    3.1247 O.2     1  UNL1       -0.2701
     17 N           9.5535   -4.1385    0.2392 N.am    1  UNL1       -0.2773
     18 C           8.5012   -4.9347   -0.0349 C.2     1  UNL1        0.2254
     19 O           7.3833   -4.5961    0.2914 O.2     1  UNL1       -0.2748
     20 C           8.7137   -6.2459   -0.7468 C.3     1  UNL1        0.0712
     21 S           7.1179   -7.0796   -0.9676 S.3     1  UNL1       -0.1365
     22 C           7.5425   -8.6195   -1.8273 C.3     1  UNL1        0.0811
     23 C           6.3181   -9.3997   -2.0699 C.1     1  UNL1        0.0732
     24 N           5.3731  -10.0018   -2.2572 N.1     1  UNL1       -0.1957
     25 O          10.5670   -2.2665    1.3745 O.3     1  UNL1       -0.3492
     26 C          11.4790   -3.1864    1.9779 C.3     1  UNL1        0.0396
     27 S           7.7679   -2.5266   -1.3990 S.3     1  UNL1       -0.1285
     28 C           6.1125   -1.7712   -1.4190 C.3     1  UNL1        0.0196
     29 C           5.1831   -1.9756    2.3239 C.2     1  UNL1        0.0860
     30 O           5.0464   -0.9346    2.9356 O.co2   1  UNL1       -0.5433
     31 H           1.3662    2.9342    0.4757 H       1  UNL1        0.0474
     32 H           2.2113    2.5574   -1.0448 H       1  UNL1        0.0474
     33 H           0.4789    2.9653   -1.0670 H       1  UNL1        0.0474
     34 H           3.5492   -2.0238    0.8647 H       1  UNL1        0.0427
     35 H           3.5240   -2.2226   -0.9040 H       1  UNL1        0.0427
     36 H          10.4476   -4.4093   -0.0218 H       1  UNL1        0.1520
     37 H           9.1650   -6.0610   -1.7216 H       1  UNL1        0.0471
     38 H           9.3750   -6.8780   -0.1543 H       1  UNL1        0.0471
     39 H           8.0184   -8.3848   -2.7794 H       1  UNL1        0.0531
     40 H           8.2284   -9.2018   -1.2120 H       1  UNL1        0.0531
     41 H          12.3794   -2.6554    2.2870 H       1  UNL1        0.0524
     42 H          11.0102   -3.6443    2.8488 H       1  UNL1        0.0524
     43 H          11.7432   -3.9611    1.2580 H       1  UNL1        0.0524
     44 H           5.4914   -2.2979   -2.1436 H       1  UNL1        0.0423
     45 H           6.2038   -0.7284   -1.7227 H       1  UNL1        0.0423
     46 O           4.5754   -3.0973    2.7584 O.co2   1  UNL1       -0.5433
@<TRIPOS>UNITY_ATOM_ATTR
46 1
charge -1
@<TRIPOS>BOND
     1     1     2    1
     2     1    31    1
     3     1    32    1
     4     1    33    1
     5     2     6   ar
     6     2     3   ar
     7     3     4   ar
     8     3     7    1
     9     4     5   ar
    10     5     6   ar
    11     7     8    1
    12     8     9    1
    13     8    34    1
    14     8    35    1
    15     9    28    1
    16     9    10    2
    17    10    11    1
    18    10    29    1
    19    11    15   am
    20    11    12    1
    21    12    13    1
    22    12    14    1
    23    12    27    1
    24    14    15    1
    25    14    17    1
    26    14    25    1
    27    15    16    2
    28    17    18   am
    29    17    36    1
    30    18    19    2
    31    18    20    1
    32    20    21    1
    33    20    37    1
    34    20    38    1
    35    21    22    1
    36    22    23    1
    37    22    39    1
    38    22    40    1
    39    23    24    3
    40    25    26    1
    41    26    41    1
    42    26    42    1
    43    26    43    1
    44    27    28    1
    45    28    44    1
    46    28    45    1
    47    29    30   ar
    48    29    46   ar
