@<TRIPOS>MOLECULE
ZINC03831196
 52 53 0 0 0
SMALL
GASTEIGER

@<TRIPOS>ATOM
      1 C          -2.5407   -3.2687   -0.9917 C.3     1  UNL1        0.0381
      2 C          -2.8491   -3.4946   -2.4731 C.3     1  UNL1        0.0100
      3 H          -3.8407   -3.9357   -2.5746 H       1  UNL1        0.0878
      4 C          -2.8084   -2.1557   -3.2125 C.3     1  UNL1        0.1260
      5 H          -1.8168   -1.7147   -3.1109 H       1  UNL1        0.0677
      6 C          -3.8511   -1.2101   -2.6129 C.3     1  UNL1        0.1177
      7 H          -4.8426   -1.6512   -2.7144 H       1  UNL1        0.0649
      8 C          -3.5426   -0.9842   -1.1314 C.3     1  UNL1        0.1326
      9 H          -4.2854   -0.3105   -0.7042 H       1  UNL1        0.0681
     10 C          -3.5834   -2.3231   -0.3921 C.3     1  UNL1        0.0104
     11 H          -4.5749   -2.7642   -0.4936 H       1  UNL1        0.0878
     12 O          -2.2427   -0.4059   -0.9983 O.3     1  UNL1       -0.3347
     13 C          -2.2374    1.0229   -1.0172 C.3     1  UNL1        0.2061
     14 H          -2.8083    1.3774   -1.8754 H       1  UNL1        0.0970
     15 C          -0.7955    1.5269   -1.1198 C.3     1  UNL1        0.0568
     16 H          -0.3558    1.1871   -2.0575 H       1  UNL1        0.0927
     17 C          -0.7939    3.0581   -1.0788 C.3     1  UNL1        0.1305
     18 H          -1.3335    3.4466   -1.9425 H       1  UNL1        0.0679
     19 C          -1.4824    3.5242    0.2076 C.3     1  UNL1        0.1176
     20 H          -1.5350    4.6129    0.2188 H       1  UNL1        0.0649
     21 C          -2.8978    2.9431    0.2590 C.3     1  UNL1        0.1296
     22 H          -3.4774    3.3227   -0.5826 H       1  UNL1        0.0678
     23 O          -2.8290    1.5176    0.1859 O.3     1  UNL1       -0.3351
     24 C          -3.5713    3.3549    1.5696 C.3     1  UNL1       -0.0058
     25 O          -0.7381    3.0693    1.3395 O.3     1  UNL1       -0.3862
     26 O           0.5528    3.5355   -1.1022 O.3     1  UNL1       -0.3834
     27 O          -3.8130    0.0404   -3.3034 O.3     1  UNL1       -0.3862
     28 O          -3.0965   -2.3667   -4.5961 O.3     1  UNL1       -0.3835
     29 H          -1.5491   -2.8276   -0.8901 H       1  UNL1        0.0377
     30 H          -2.5697   -4.2226   -0.4649 H       1  UNL1        0.0377
     31 H          -3.3081   -2.9763    1.5408 H       1  UNL1        0.1998
     32 H          -2.4006   -1.6391    1.1480 H       1  UNL1        0.1998
     33 H          -2.9918    2.9748    2.4109 H       1  UNL1        0.0840
     34 H          -3.6227    4.4423    1.6257 H       1  UNL1        0.0840
     35 H          -4.9131    1.7949    1.5036 H       1  UNL1        0.1995
     36 H          -5.3955    3.0553    2.4755 H       1  UNL1        0.1995
     37 H           0.1717    3.3957    1.3689 H       1  UNL1        0.2100
     38 H           0.6289    4.4992   -1.0785 H       1  UNL1        0.2102
     39 H           0.0021   -0.0041    0.0020 H       1  UNL1        0.2000
     40 H           0.9253    1.3792    0.0006 H       1  UNL1        0.2000
     41 H          -3.9998   -0.0271   -4.2498 H       1  UNL1        0.2100
     42 H          -3.0879   -1.5588   -5.1273 H       1  UNL1        0.2102
     43 H          -1.8552   -5.2945   -2.5772 H       1  UNL1        0.1998
     44 H          -1.9917   -4.5170   -4.0410 H       1  UNL1        0.1998
     45 N          -3.3066   -2.0912    1.0366 N.4     1  UNL1        0.2228
     46 H          -4.0352   -1.4821    1.4269 H       1  UNL1        0.1998
     47 N          -4.9396    2.8088    1.5986 N.4     1  UNL1        0.2204
     48 H          -5.4775    3.2044    0.8186 H       1  UNL1        0.1995
     49 N          -0.0252    1.0139    0.0269 N.4     1  UNL1        0.2263
     50 H          -0.4761    1.3157    0.8986 H       1  UNL1        0.2000
     51 N          -1.8269   -4.3895   -3.0438 N.4     1  UNL1        0.2228
     52 H          -0.8989   -3.9716   -2.9084 H       1  UNL1        0.1998
@<TRIPOS>UNITY_ATOM_ATTR
45 1
charge 1
47 1
charge 1
49 1
charge 1
51 1
charge 1
@<TRIPOS>BOND
     1     1    10    1
     2     1     2    1
     3     1    29    1
     4     1    30    1
     5     2     3    1
     6     2     4    1
     7     2    51    1
     8     4     5    1
     9     4     6    1
    10     4    28    1
    11     6     7    1
    12     6     8    1
    13     6    27    1
    14     8     9    1
    15     8    10    1
    16     8    12    1
    17    10    11    1
    18    10    45    1
    19    12    13    1
    20    13    14    1
    21    13    23    1
    22    13    15    1
    23    15    16    1
    24    15    17    1
    25    15    49    1
    26    17    18    1
    27    17    19    1
    28    17    26    1
    29    19    20    1
    30    19    21    1
    31    19    25    1
    32    21    22    1
    33    21    23    1
    34    21    24    1
    35    24    33    1
    36    24    34    1
    37    24    47    1
    38    25    37    1
    39    26    38    1
    40    27    41    1
    41    28    42    1
    42    31    45    1
    43    32    45    1
    44    35    47    1
    45    36    47    1
    46    39    49    1
    47    40    49    1
    48    43    51    1
    49    44    51    1
    50    45    46    1
    51    47    48    1
    52    49    50    1
    53    51    52    1
