@<TRIPOS>MOLECULE
ZINC03831235
 48 49 0 0 0
SMALL
GASTEIGER

@<TRIPOS>ATOM
      1 C          -0.7288    1.5792    1.2668 C.3     1  UNL1       -0.0216
      2 C          -0.0127    1.0858    0.0080 C.3     1  UNL1       -0.0249
      3 H           0.0021   -0.0041    0.0020 H       1  UNL1        0.0848
      4 C          -0.7527    1.5927   -1.2315 C.3     1  UNL1       -0.0060
      5 C          -0.1114    0.9981   -2.4870 C.3     1  UNL1       -0.0226
      6 C          -0.8403    1.4973   -3.7079 C.ar    1  UNL1       -0.0472
      7 C          -1.9159    0.7882   -4.2088 C.ar    1  UNL1       -0.0586
      8 C          -2.5878    1.2489   -5.3256 C.ar    1  UNL1       -0.0615
      9 C          -2.1772    2.4130   -5.9479 C.ar    1  UNL1       -0.0617
     10 C          -1.0980    3.1191   -5.4503 C.ar    1  UNL1       -0.0615
     11 C          -0.4297    2.6614   -4.3302 C.ar    1  UNL1       -0.0586
     12 C           2.2556    0.7183    0.7710 C.3     1  UNL1        0.0055
     13 H           1.7133    0.3115    1.6245 H       1  UNL1        0.0877
     14 C           2.7416   -0.4281   -0.1180 C.3     1  UNL1       -0.0189
     15 C           3.4581    1.5235    1.2677 C.3     1  UNL1        0.1222
     16 H           3.1083    2.3911    1.8272 H       1  UNL1        0.0701
     17 C           4.3075    0.6579    2.1622 C.ar    1  UNL1       -0.0136
     18 C           5.2579   -0.1812    1.6104 C.ar    1  UNL1       -0.0525
     19 C           6.0417   -0.9716    2.4286 C.ar    1  UNL1       -0.0198
     20 C           5.8665   -0.9316    3.8042 C.ar    1  UNL1        0.1169
     21 C           4.9083   -0.0930    4.3550 C.ar    1  UNL1       -0.0198
     22 C           4.1312    0.6999    3.5329 C.ar    1  UNL1       -0.0525
     23 O           6.6319   -1.7129    4.6108 O.3     1  UNL1       -0.5068
     24 O           4.2342    1.9591    0.1497 O.3     1  UNL1       -0.3816
     25 H          -1.7514    1.2020    1.2746 H       1  UNL1        0.0284
     26 H          -0.2017    1.2182    2.1499 H       1  UNL1        0.0284
     27 H          -0.7436    2.6691    1.2728 H       1  UNL1        0.0284
     28 H          -1.7985    1.2898   -1.1795 H       1  UNL1        0.0323
     29 H          -0.6910    2.6801   -1.2722 H       1  UNL1        0.0323
     30 H           0.9344    1.3010   -2.5390 H       1  UNL1        0.0315
     31 H          -0.1731   -0.0894   -2.4463 H       1  UNL1        0.0315
     32 H          -2.2339   -0.1237   -3.7253 H       1  UNL1        0.0620
     33 H          -3.4312    0.6974   -5.7142 H       1  UNL1        0.0618
     34 H          -2.6998    2.7710   -6.8226 H       1  UNL1        0.0618
     35 H          -0.7772    4.0286   -5.9365 H       1  UNL1        0.0618
     36 H           0.4135    3.2131   -3.9414 H       1  UNL1        0.0620
     37 H           1.8849   -1.0018   -0.4718 H       1  UNL1        0.0285
     38 H           3.2839   -0.0213   -0.9715 H       1  UNL1        0.0285
     39 H           3.4021   -1.0781    0.4559 H       1  UNL1        0.0285
     40 H           5.3904   -0.2157    0.5391 H       1  UNL1        0.0622
     41 H           6.7872   -1.6233    1.9974 H       1  UNL1        0.0654
     42 H           4.7703   -0.0599    5.4256 H       1  UNL1        0.0654
     43 H           3.3852    1.3528    3.9612 H       1  UNL1        0.0622
     44 H           6.2543   -2.5856    4.7864 H       1  UNL1        0.2921
     45 H           4.5789    1.2380   -0.3947 H       1  UNL1        0.2105
     46 N           1.3685    1.6032   -0.0074 N.4     1  UNL1        0.2330
     47 H           1.3825    2.5438    0.4041 H       1  UNL1        0.2020
     48 H           1.7022    1.6490   -0.9774 H       1  UNL1        0.2020
@<TRIPOS>UNITY_ATOM_ATTR
46 1
charge 1
@<TRIPOS>BOND
     1     1     2    1
     2     1    25    1
     3     1    26    1
     4     1    27    1
     5     2     3    1
     6     2     4    1
     7     2    46    1
     8     4     5    1
     9     4    28    1
    10     4    29    1
    11     5     6    1
    12     5    30    1
    13     5    31    1
    14     6    11   ar
    15     6     7   ar
    16     7     8   ar
    17     7    32    1
    18     8     9   ar
    19     8    33    1
    20     9    10   ar
    21     9    34    1
    22    10    11   ar
    23    10    35    1
    24    11    36    1
    25    12    13    1
    26    12    14    1
    27    12    15    1
    28    12    46    1
    29    14    37    1
    30    14    38    1
    31    14    39    1
    32    15    16    1
    33    15    17    1
    34    15    24    1
    35    17    22   ar
    36    17    18   ar
    37    18    19   ar
    38    18    40    1
    39    19    20   ar
    40    19    41    1
    41    20    21   ar
    42    20    23    1
    43    21    22   ar
    44    21    42    1
    45    22    43    1
    46    23    44    1
    47    24    45    1
    48    46    47    1
    49    46    48    1
