@<TRIPOS>MOLECULE
ZINC03830557
 54 57 0 0 0
SMALL
GASTEIGER

@<TRIPOS>ATOM
      1 C          -1.3309    2.1289    0.0199 C.3     1  UNL1       -0.0383
      2 C          -0.0168    1.3912    0.0097 C.ar    1  UNL1       -0.0266
      3 C           1.1793    2.0985    0.0021 C.ar    1  UNL1        0.0369
      4 C           2.4072    1.4060   -0.0143 C.ar    1  UNL1        0.0369
      5 C           2.4227    0.0184   -0.0207 C.ar    1  UNL1       -0.0080
      6 C           1.2255   -0.6898   -0.0124 C.ar    1  UNL1        0.1266
      7 C           0.0021   -0.0041    0.0020 C.ar    1  UNL1        0.0423
      8 C          -1.2663   -0.7588    0.0096 C.2     1  UNL1        0.0754
      9 O          -1.7979   -1.0637   -1.0393 O.co2   1  UNL1       -0.5445
     10 O           1.2412   -2.0446   -0.0188 O.3     1  UNL1       -0.5061
     11 C           3.6772    2.1696   -0.0247 C.2     1  UNL1        0.1984
     12 O           4.7319    1.6132    0.2112 O.2     1  UNL1       -0.2865
     13 C           3.6454    3.6124   -0.3241 C.ar    1  UNL1        0.0816
     14 C           2.4131    4.3038   -0.3056 C.ar    1  UNL1        0.0785
     15 C           2.3813    5.6715   -0.5883 C.ar    1  UNL1        0.1378
     16 C           3.5619    6.3459   -0.8879 C.ar    1  UNL1        0.0708
     17 C           4.7680    5.6727   -0.9080 C.ar    1  UNL1        0.1684
     18 C           4.8190    4.3000   -0.6260 C.ar    1  UNL1        0.1705
     19 O           6.0062    3.6444   -0.6467 O.3     1  UNL1       -0.5028
     20 O           5.9107    6.3440   -1.2021 O.3     1  UNL1       -0.5030
     21 C           3.5238    7.8214   -1.1920 C.3     1  UNL1        0.1194
     22 H           2.5651    8.2329   -0.8764 H       1  UNL1        0.0676
     23 C           3.7018    8.0372   -2.6971 C.3     1  UNL1        0.1139
     24 H           4.6417    7.5901   -3.0206 H       1  UNL1        0.0649
     25 C           3.7223    9.5405   -2.9906 C.3     1  UNL1        0.1121
     26 H           2.7639    9.9793   -2.7129 H       1  UNL1        0.0647
     27 C           4.8410   10.1938   -2.1733 C.3     1  UNL1        0.1117
     28 H           4.8273   11.2719   -2.3337 H       1  UNL1        0.0647
     29 C           4.6190    9.8947   -0.6884 C.3     1  UNL1        0.1108
     30 H           3.6747   10.3336   -0.3662 H       1  UNL1        0.0646
     31 O           4.5796    8.4801   -0.4895 O.3     1  UNL1       -0.3609
     32 C           5.7652   10.4932    0.1295 C.3     1  UNL1        0.0729
     33 O           5.5003   10.3146    1.5224 O.3     1  UNL1       -0.3924
     34 O           6.1035    9.6648   -2.5835 O.3     1  UNL1       -0.3865
     35 O           3.9614    9.7524   -4.3834 O.3     1  UNL1       -0.3865
     36 O           2.6157    7.4285   -3.3985 O.3     1  UNL1       -0.3862
     37 O           1.2023    6.3413   -0.5705 O.3     1  UNL1       -0.5055
     38 C           1.1734    3.5762    0.0102 C.2     1  UNL1        0.1984
     39 O           0.1541    4.1851    0.2752 O.2     1  UNL1       -0.2865
     40 H          -1.6428    2.3012    1.0500 H       1  UNL1        0.0278
     41 H          -1.2144    3.0856   -0.4893 H       1  UNL1        0.0278
     42 H          -2.0858    1.5336   -0.4936 H       1  UNL1        0.0278
     43 H           3.3637   -0.5114   -0.0316 H       1  UNL1        0.0661
     44 H           1.2376   -2.4338   -0.9040 H       1  UNL1        0.2922
     45 H           6.2357    3.2736   -1.5097 H       1  UNL1        0.2923
     46 H           6.1271    6.3582   -2.1444 H       1  UNL1        0.2923
     47 H           6.6974    9.9917   -0.1302 H       1  UNL1        0.0584
     48 H           5.8515   11.5573   -0.0904 H       1  UNL1        0.0584
     49 H           6.1872   10.6711    2.1022 H       1  UNL1        0.2095
     50 H           6.3102    9.8182   -3.5156 H       1  UNL1        0.2100
     51 H           3.9941   10.6843   -4.6395 H       1  UNL1        0.2100
     52 H           2.6638    7.5265   -4.3594 H       1  UNL1        0.2100
     53 H           0.7454    6.3560   -1.4226 H       1  UNL1        0.2922
     54 O          -1.8345   -1.1095    1.1798 O.co2   1  UNL1       -0.5445
@<TRIPOS>UNITY_ATOM_ATTR
54 1
charge -1
@<TRIPOS>BOND
     1     1     2    1
     2     1    40    1
     3     1    41    1
     4     1    42    1
     5     2     7   ar
     6     2     3   ar
     7     3    38    1
     8     3     4   ar
     9     4     5   ar
    10     4    11    1
    11     5     6   ar
    12     5    43    1
    13     6     7   ar
    14     6    10    1
    15     7     8    1
    16     8     9   ar
    17     8    54   ar
    18    10    44    1
    19    11    12    2
    20    11    13    1
    21    13    18   ar
    22    13    14   ar
    23    14    15   ar
    24    14    38    1
    25    15    16   ar
    26    15    37    1
    27    16    17   ar
    28    16    21    1
    29    17    18   ar
    30    17    20    1
    31    18    19    1
    32    19    45    1
    33    20    46    1
    34    21    22    1
    35    21    31    1
    36    21    23    1
    37    23    24    1
    38    23    25    1
    39    23    36    1
    40    25    26    1
    41    25    27    1
    42    25    35    1
    43    27    28    1
    44    27    29    1
    45    27    34    1
    46    29    30    1
    47    29    31    1
    48    29    32    1
    49    32    33    1
    50    32    47    1
    51    32    48    1
    52    33    49    1
    53    34    50    1
    54    35    51    1
    55    36    52    1
    56    37    53    1
    57    38    39    2
