@<TRIPOS>MOLECULE
ZINC13298661
 51 54 0 0 0
SMALL
GASTEIGER

@<TRIPOS>ATOM
      1 C          -0.4829    1.0082   -0.8427 C.3     1  UNL1       -0.0556
      2 C          -0.1623    2.4993   -0.7215 C.3     1  UNL1       -0.0072
      3 C          -0.5182    3.1597   -2.0416 C.3     1  UNL1       -0.0367
      4 C          -2.0187    3.3855   -2.1771 C.3     1  UNL1        0.0107
      5 C          -2.4331    4.2709   -1.0182 C.2     1  UNL1        0.1561
      6 O          -3.1062    5.2665   -1.1850 O.2     1  UNL1       -0.2927
      7 C          -1.9779    3.8619    0.3150 C.2     1  UNL1       -0.0194
      8 C          -0.9357    3.0415    0.4410 C.2     1  UNL1       -0.0601
      9 C          -0.5265    2.5824    1.8432 C.3     1  UNL1       -0.0305
     10 C           0.9812    2.7904    1.9990 C.3     1  UNL1       -0.0459
     11 C           1.7155    2.0361    0.8854 C.3     1  UNL1       -0.0337
     12 H           1.4236    0.9862    0.9093 H       1  UNL1        0.0307
     13 C           1.3382    2.6333   -0.4688 C.3     1  UNL1       -0.0288
     14 H           1.8845    2.1147   -1.2567 H       1  UNL1        0.0312
     15 C           1.7462    4.1090   -0.4713 C.3     1  UNL1       -0.0485
     16 C           3.2676    4.1849   -0.3634 C.3     1  UNL1       -0.0435
     17 C           3.7608    3.5553    0.9410 C.3     1  UNL1        0.0111
     18 C           3.2096    2.1283    1.1110 C.3     1  UNL1       -0.0289
     19 H           3.4466    1.7672    2.1118 H       1  UNL1        0.0310
     20 C           4.0124    1.3096    0.0835 C.3     1  UNL1       -0.0458
     21 C           5.4387    1.8972    0.1925 C.3     1  UNL1       -0.0118
     22 C           5.2855    3.3177    0.7679 C.3     1  UNL1        0.1317
     23 C           5.8483    4.3055   -0.1672 C.1     1  UNL1       -0.0704
     24 C           6.2971    5.0933   -0.9130 C.1     1  UNL1       -0.1163
     25 O           5.9434    3.4097    2.0331 O.3     1  UNL1       -0.3760
     26 C           3.4567    4.4275    2.1607 C.3     1  UNL1       -0.0558
     27 H          -0.2077    0.5010    0.0820 H       1  UNL1        0.0238
     28 H          -1.5501    0.8796   -1.0239 H       1  UNL1        0.0238
     29 H           0.0805    0.5817   -1.6726 H       1  UNL1        0.0238
     30 H           0.0029    4.1144   -2.1138 H       1  UNL1        0.0278
     31 H          -0.1948    2.5165   -2.8599 H       1  UNL1        0.0278
     32 H          -2.4923    2.5053   -2.1468 H       1  UNL1        0.0345
     33 H          -2.2365    3.8848   -3.1212 H       1  UNL1        0.0345
     34 H          -2.4880    4.2256    1.1947 H       1  UNL1        0.0652
     35 H          -0.7662    1.5278    1.9784 H       1  UNL1        0.0310
     36 H          -1.0566    3.1764    2.5877 H       1  UNL1        0.0310
     37 H           1.3024    2.4103    2.9688 H       1  UNL1        0.0271
     38 H           1.2110    3.8537    1.9309 H       1  UNL1        0.0271
     39 H           1.4197    4.5790   -1.3990 H       1  UNL1        0.0268
     40 H           1.2916    4.6174    0.3789 H       1  UNL1        0.0268
     41 H           3.5764    5.2297   -0.3951 H       1  UNL1        0.0272
     42 H           3.7125    3.6559   -1.2062 H       1  UNL1        0.0272
     43 H           4.0112    0.2525    0.3493 H       1  UNL1        0.0269
     44 H           3.6128    1.4549   -0.9201 H       1  UNL1        0.0269
     45 H           5.9007    1.9416   -0.7938 H       1  UNL1        0.0303
     46 H           6.0449    1.2866    0.8615 H       1  UNL1        0.0303
     47 H           6.6986    5.7979   -1.5800 H       1  UNL1        0.1229
     48 H           6.8994    3.2703    1.9904 H       1  UNL1        0.2114
     49 H           3.6172    3.8488    3.0703 H       1  UNL1        0.0236
     50 H           4.1167    5.2949    2.1607 H       1  UNL1        0.0236
     51 H           2.4195    4.7601    2.1200 H       1  UNL1        0.0236
@<TRIPOS>BOND
     1     1     2    1
     2     1    27    1
     3     1    28    1
     4     1    29    1
     5     2     8    1
     6     2    13    1
     7     2     3    1
     8     3     4    1
     9     3    30    1
    10     3    31    1
    11     4     5    1
    12     4    32    1
    13     4    33    1
    14     5     6    2
    15     5     7    1
    16     7     8    2
    17     7    34    1
    18     8     9    1
    19     9    10    1
    20     9    35    1
    21     9    36    1
    22    10    11    1
    23    10    37    1
    24    10    38    1
    25    11    12    1
    26    11    18    1
    27    11    13    1
    28    13    14    1
    29    13    15    1
    30    15    16    1
    31    15    39    1
    32    15    40    1
    33    16    17    1
    34    16    41    1
    35    16    42    1
    36    17    22    1
    37    17    18    1
    38    17    26    1
    39    18    19    1
    40    18    20    1
    41    20    21    1
    42    20    43    1
    43    20    44    1
    44    21    22    1
    45    21    45    1
    46    21    46    1
    47    22    23    1
    48    22    25    1
    49    23    24    3
    50    24    47    1
    51    25    48    1
    52    26    49    1
    53    26    50    1
    54    26    51    1
