@<TRIPOS>MOLECULE
ZINC03830999
 35 36 0 0 0
SMALL
GASTEIGER

@<TRIPOS>ATOM
      1 C           0.3964    9.1817   -3.6528 C.ar    1  UNL1       -0.0158
      2 C           0.1763    9.8444   -4.8449 C.ar    1  UNL1       -0.0157
      3 C           0.1102   11.2293   -4.8665 C.ar    1  UNL1        0.1301
      4 C           0.2600   11.9496   -3.6898 C.ar    1  UNL1        0.0582
      5 C           0.4748   11.2867   -2.4970 C.ar    1  UNL1       -0.0027
      6 C           0.5408    9.9010   -2.4757 C.ar    1  UNL1        0.1297
      7 O           0.7528    9.2484   -1.3019 O.3     1  UNL1       -0.4539
      8 C           0.8102    7.8909   -1.3280 C.ar    1  UNL1        0.1545
      9 C           2.0253    7.2501   -1.5256 C.ar    1  UNL1        0.0569
     10 C           2.0808    5.8694   -1.5512 C.ar    1  UNL1       -0.0416
     11 C           0.9272    5.1266   -1.3802 C.ar    1  UNL1       -0.0395
     12 C          -0.2856    5.7624   -1.1888 C.ar    1  UNL1       -0.0416
     13 C          -0.3462    7.1427   -1.1566 C.ar    1  UNL1        0.0569
     14 I          -2.1831    8.1050   -0.8587 I       1  UNL1       -0.0400
     15 C           0.9909    3.6212   -1.4086 C.3     1  UNL1        0.0209
     16 CA          1.2350    3.0943    0.0069 C.3     1  UNL1        0.0200
     17 HA          0.4688    3.4843    0.6769 H       1  UNL1        0.0918
     18 C           1.1765    1.5884   -0.0006 C.2     1  UNL1        0.0897
     19 O           2.1986    0.9442   -0.0139 O.co2   1  UNL1       -0.5442
     20 I           3.7739    8.3746   -1.7841 I       1  UNL1       -0.0400
     21 I           0.1609   14.0420   -3.7224 I       1  UNL1       -0.0399
     22 O          -0.1008   11.8817   -6.0409 O.3     1  UNL1       -0.5057
     23 H           0.4522    8.1033   -3.6369 H       1  UNL1        0.0655
     24 H           0.0597    9.2840   -5.7607 H       1  UNL1        0.0655
     25 H           0.5917   11.8471   -1.5811 H       1  UNL1        0.0666
     26 H           3.0261    5.3702   -1.7046 H       1  UNL1        0.0632
     27 H          -1.1858    5.1797   -1.0599 H       1  UNL1        0.0632
     28 H           1.8055    3.3043   -2.0598 H       1  UNL1        0.0372
     29 H           0.0485    3.2247   -1.7864 H       1  UNL1        0.0372
     30 H1          3.2870    3.1816   -0.1348 H       1  UNL1        0.2001
     31 H2          2.6024    4.5358    0.5458 H       1  UNL1        0.2001
     32 H           0.7103   12.1096   -6.5155 H       1  UNL1        0.2922
     33 OXT        -0.0110    0.9628    0.0073 O.co2   1  UNL1       -0.5442
     34 N           2.5594    3.5194    0.4930 N.4     1  UNL1        0.2251
     35 H3          2.7168    3.1284    1.4293 H       1  UNL1        0.2001
@<TRIPOS>UNITY_ATOM_ATTR
33 1
charge -1
34 1
charge 1
@<TRIPOS>BOND
     1     1     6   ar
     2     1     2   ar
     3     1    23    1
     4     2     3   ar
     5     2    24    1
     6     3     4   ar
     7     3    22    1
     8     4     5   ar
     9     4    21    1
    10     5     6   ar
    11     5    25    1
    12     6     7    1
    13     7     8    1
    14     8    13   ar
    15     8     9   ar
    16     9    10   ar
    17     9    20    1
    18    10    11   ar
    19    10    26    1
    20    11    12   ar
    21    11    15    1
    22    12    13   ar
    23    12    27    1
    24    13    14    1
    25    15    16    1
    26    15    28    1
    27    15    29    1
    28    16    17    1
    29    16    18    1
    30    16    34    1
    31    18    19   ar
    32    18    33   ar
    33    22    32    1
    34    30    34    1
    35    31    34    1
    36    34    35    1
