@<TRIPOS>MOLECULE
ZINC00000780
 36 38 0 0 0
SMALL
GASTEIGER

@<TRIPOS>ATOM
      1 C           3.3293    4.1861   -3.7277 C.3     1  UNL1       -0.0428
      2 C           5.1238    2.8419   -2.8160 C.3     1  UNL1       -0.0316
      3 C           5.6664    2.2192   -1.5278 C.3     1  UNL1       -0.0086
      4 C           4.7689    1.0514   -1.1163 C.3     1  UNL1       -0.0211
      5 C           3.3366    1.5413   -1.0778 C.2     1  UNL1       -0.0158
      6 C           2.5490    1.2959   -0.0161 C.2     1  UNL1        0.0066
      7 C           1.1563    1.7898    0.0006 C.ar    1  UNL1        0.0205
      8 C          -0.0126    1.0758    0.0080 C.ar    1  UNL1       -0.0469
      9 C          -1.2071    1.7616    0.0173 C.ar    1  UNL1       -0.0541
     10 C          -1.1905    3.1194    0.0303 C.ar    1  UNL1       -0.0237
     11 S           0.5594    3.4724    0.0154 S.2     1  UNL1       -0.0966
     12 C           3.0760    0.5323    1.1342 C.ar    1  UNL1        0.0205
     13 C           3.2833    0.9467    2.4231 C.ar    1  UNL1       -0.0469
     14 C           3.7892    0.0465    3.3346 C.ar    1  UNL1       -0.0541
     15 C           4.0664   -1.2198    2.9300 C.ar    1  UNL1       -0.0237
     16 S           3.6010   -1.1726    1.2072 S.2     1  UNL1       -0.0966
     17 C           2.8205    2.3207   -2.2677 C.3     1  UNL1       -0.0094
     18 H           2.3655    4.6400   -3.4971 H       1  UNL1        0.0778
     19 H           4.0586    4.9686   -3.9371 H       1  UNL1        0.0778
     20 H           3.2277    3.5412   -4.6006 H       1  UNL1        0.0778
     21 H           5.0723    2.0792   -3.5931 H       1  UNL1        0.0814
     22 H           5.7894    3.6422   -3.1395 H       1  UNL1        0.0814
     23 H           6.6811    1.8587   -1.6967 H       1  UNL1        0.0320
     24 H           5.6728    2.9680   -0.7358 H       1  UNL1        0.0320
     25 H           5.0620    0.6934   -0.1294 H       1  UNL1        0.0314
     26 H           4.8627    0.2452   -1.8437 H       1  UNL1        0.0314
     27 H           0.0021   -0.0041    0.0020 H       1  UNL1        0.0629
     28 H          -2.1450    1.2261    0.0184 H       1  UNL1        0.0623
     29 H          -2.0220    3.8085    0.0425 H       1  UNL1        0.0693
     30 H           3.0541    1.9597    2.7191 H       1  UNL1        0.0629
     31 H           3.9630    0.3439    4.3582 H       1  UNL1        0.0623
     32 H           4.4621   -2.0447    3.5040 H       1  UNL1        0.0693
     33 H           2.7206    1.6557   -3.1255 H       1  UNL1        0.0864
     34 H           1.8522    2.7590   -2.0261 H       1  UNL1        0.0864
     35 N           3.7832    3.4078   -2.5569 N.4     1  UNL1        0.2361
     36 H           3.8363    4.0310   -1.7426 H       1  UNL1        0.2034
@<TRIPOS>UNITY_ATOM_ATTR
35 1
charge 1
@<TRIPOS>BOND
     1     1    18    1
     2     1    19    1
     3     1    20    1
     4     1    35    1
     5     2     3    1
     6     2    21    1
     7     2    22    1
     8     2    35    1
     9     3     4    1
    10     3    23    1
    11     3    24    1
    12     4     5    1
    13     4    25    1
    14     4    26    1
    15     5     6    2
    16     5    17    1
    17     6     7    1
    18     6    12    1
    19     7    11   ar
    20     7     8   ar
    21     8     9   ar
    22     8    27    1
    23     9    10   ar
    24     9    28    1
    25    10    11   ar
    26    10    29    1
    27    12    16   ar
    28    12    13   ar
    29    13    14   ar
    30    13    30    1
    31    14    15   ar
    32    14    31    1
    33    15    16   ar
    34    15    32    1
    35    17    33    1
    36    17    34    1
    37    17    35    1
    38    35    36    1
