@<TRIPOS>MOLECULE
ZINC00056647
 41 43 0 0 0
SMALL
GASTEIGER

@<TRIPOS>ATOM
      1 C           0.3117    1.5864    2.4622 C.3     1  UNL1       -0.0201
      2 C          -0.5641    1.8087    1.2275 C.3     1  UNL1       -0.0078
      3 H          -0.5369    2.8617    0.9475 H       1  UNL1        0.0864
      4 C          -2.0047    1.4022    1.5442 C.3     1  UNL1        0.0599
      5 N          -2.5443    2.2849    2.5814 N.pl3   1  UNL1       -0.2929
      6 C          -2.5025    1.8696    3.9167 C.ar    1  UNL1        0.0480
      7 C          -2.7105    0.5426    4.2464 C.ar    1  UNL1       -0.0393
      8 C          -2.6643    0.1418    5.5702 C.ar    1  UNL1       -0.0599
      9 C          -2.4067    1.0591    6.5709 C.ar    1  UNL1       -0.0606
     10 C          -2.1915    2.3904    6.2534 C.ar    1  UNL1       -0.0462
     11 C          -2.2361    2.7954    4.9331 C.ar    1  UNL1        0.0341
     12 S          -1.9655    4.4850    4.4970 S.3     1  UNL1       -0.0857
     13 C          -2.9044    4.6456    3.0102 C.ar    1  UNL1        0.0341
     14 C          -3.0921    3.5169    2.2080 C.ar    1  UNL1        0.0480
     15 C          -3.8276    3.6296    1.0385 C.ar    1  UNL1       -0.0393
     16 C          -4.3674    4.8514    0.6759 C.ar    1  UNL1       -0.0599
     17 C          -4.1785    5.9644    1.4728 C.ar    1  UNL1       -0.0606
     18 C          -3.4451    5.8632    2.6437 C.ar    1  UNL1       -0.0462
     19 C          -0.9053    1.1437   -1.0756 C.3     1  UNL1       -0.0430
     20 C           1.3400    1.3252   -0.1879 C.3     1  UNL1       -0.0430
     21 H          -0.0634    2.1916    3.2875 H       1  UNL1        0.0285
     22 H           1.3381    1.8760    2.2365 H       1  UNL1        0.0285
     23 H           0.2845    0.5334    2.7422 H       1  UNL1        0.0285
     24 H          -2.6124    1.4863    0.6433 H       1  UNL1        0.0524
     25 H          -2.0218    0.3717    1.8991 H       1  UNL1        0.0524
     26 H          -2.9124   -0.1803    3.4699 H       1  UNL1        0.0636
     27 H          -2.8312   -0.8949    5.8229 H       1  UNL1        0.0618
     28 H          -2.3734    0.7381    7.6016 H       1  UNL1        0.0618
     29 H          -1.9893    3.1085    7.0344 H       1  UNL1        0.0629
     30 H          -3.9797    2.7642    0.4106 H       1  UNL1        0.0636
     31 H          -4.9403    4.9354   -0.2357 H       1  UNL1        0.0618
     32 H          -4.6033    6.9140    1.1826 H       1  UNL1        0.0618
     33 H          -3.2966    6.7323    3.2675 H       1  UNL1        0.0629
     34 H          -1.0098    2.2018   -1.3156 H       1  UNL1        0.0777
     35 H          -0.4458    0.6241   -1.9163 H       1  UNL1        0.0777
     36 H          -1.8888    0.7171   -0.8783 H       1  UNL1        0.0777
     37 H           1.9567    1.1381    0.6912 H       1  UNL1        0.0777
     38 H           1.6893    0.7070   -1.0149 H       1  UNL1        0.0777
     39 H           1.4118    2.3770   -0.4649 H       1  UNL1        0.0777
     40 N          -0.0594    0.9655    0.1233 N.4     1  UNL1        0.2340
     41 H          -0.0943   -0.0190    0.4127 H       1  UNL1        0.2031
@<TRIPOS>UNITY_ATOM_ATTR
40 1
charge 1
@<TRIPOS>BOND
     1     1     2    1
     2     1    21    1
     3     1    22    1
     4     1    23    1
     5     2     3    1
     6     2     4    1
     7     2    40    1
     8     4     5    1
     9     4    24    1
    10     4    25    1
    11     5    14    1
    12     5     6    1
    13     6    11   ar
    14     6     7   ar
    15     7     8   ar
    16     7    26    1
    17     8     9   ar
    18     8    27    1
    19     9    10   ar
    20     9    28    1
    21    10    11   ar
    22    10    29    1
    23    11    12    1
    24    12    13    1
    25    13    18   ar
    26    13    14   ar
    27    14    15   ar
    28    15    16   ar
    29    15    30    1
    30    16    17   ar
    31    16    31    1
    32    17    18   ar
    33    17    32    1
    34    18    33    1
    35    19    34    1
    36    19    35    1
    37    19    36    1
    38    19    40    1
    39    20    37    1
    40    20    38    1
    41    20    39    1
    42    20    40    1
    43    40    41    1
