@<TRIPOS>MOLECULE
ZINC03830949
 28 28 0 0 0
SMALL
GASTEIGER

@<TRIPOS>ATOM
      1 C          -3.3860   -0.6391    0.4343 C.3     1  UNL1       -0.0647
      2 C          -3.9976    0.5057    1.2444 C.3     1  UNL1       -0.0477
      3 C          -2.9362    1.5798    1.4910 C.3     1  UNL1        0.0024
      4 H          -2.0555    1.1233    1.9427 H       1  UNL1        0.0363
      5 C          -2.5488    2.2287    0.1607 C.3     1  UNL1       -0.0177
      6 C          -1.4307    3.2130    0.3888 C.ar    1  UNL1       -0.0187
      7 C          -1.6706    4.5706    0.2720 C.ar    1  UNL1        0.0186
      8 C          -0.6459    5.4770    0.4753 C.ar    1  UNL1       -0.0334
      9 C           0.6203    5.0292    0.8007 C.ar    1  UNL1        0.0360
     10 C           0.8632    3.6671    0.9239 C.ar    1  UNL1        0.0514
     11 C          -0.1686    2.7591    0.7194 C.ar    1  UNL1        0.0392
     12 I           0.1915    0.7035    0.9040 I       1  UNL1       -0.0416
     13 N           2.1428    3.2108    1.2524 N.pl3   1  UNL1       -0.3564
     14 I           2.1716    6.4032    1.1084 I       1  UNL1       -0.0419
     15 I          -3.5883    5.2545   -0.2218 I       1  UNL1       -0.0435
     16 C          -3.4901    2.6295    2.4195 C.2     1  UNL1        0.0451
     17 O          -3.7097    3.7444    2.0087 O.co2   1  UNL1       -0.5495
     18 H          -2.9628   -0.2449   -0.4896 H       1  UNL1        0.0230
     19 H          -2.6004   -1.1184    1.0184 H       1  UNL1        0.0230
     20 H          -4.1593   -1.3698    0.1969 H       1  UNL1        0.0230
     21 H          -4.3564    0.1234    2.2000 H       1  UNL1        0.0269
     22 H          -4.8305    0.9384    0.6904 H       1  UNL1        0.0269
     23 H          -3.4118    2.7491   -0.2547 H       1  UNL1        0.0320
     24 H          -2.2185    1.4588   -0.5366 H       1  UNL1        0.0320
     25 H          -0.8354    6.5359    0.3793 H       1  UNL1        0.0639
     26 H           2.3113    2.2594    1.3379 H       1  UNL1        0.1424
     27 H           2.8623    3.8456    1.3949 H       1  UNL1        0.1424
     28 O          -3.7396    2.3260    3.7030 O.co2   1  UNL1       -0.5495
@<TRIPOS>UNITY_ATOM_ATTR
28 1
charge -1
@<TRIPOS>BOND
     1     1     2    1
     2     1    18    1
     3     1    19    1
     4     1    20    1
     5     2     3    1
     6     2    21    1
     7     2    22    1
     8     3     4    1
     9     3     5    1
    10     3    16    1
    11     5     6    1
    12     5    23    1
    13     5    24    1
    14     6    11   ar
    15     6     7   ar
    16     7     8   ar
    17     7    15    1
    18     8     9   ar
    19     8    25    1
    20     9    10   ar
    21     9    14    1
    22    10    11   ar
    23    10    13    1
    24    11    12    1
    25    13    26    1
    26    13    27    1
    27    16    17   ar
    28    16    28   ar
