@<TRIPOS>MOLECULE
ZINC01530992
 40 42 0 0 0
SMALL
GASTEIGER

@<TRIPOS>ATOM
      1 C          -2.2122    6.2694   -6.5744 C.ar    1  UNL1       -0.0617
      2 C          -1.0827    5.5505   -6.2304 C.ar    1  UNL1       -0.0613
      3 C          -0.2527    6.0071   -5.2237 C.ar    1  UNL1       -0.0528
      4 C          -0.5525    7.1823   -4.5605 C.ar    1  UNL1        0.0091
      5 C          -1.6850    7.8983   -4.9006 C.ar    1  UNL1       -0.0528
      6 C          -2.5119    7.4447   -5.9112 C.ar    1  UNL1       -0.0613
      7 CA          0.3521    7.6799   -3.4627 C.3     1  UNL1        0.0789
      8 HA          1.3337    7.2168   -3.5629 H       1  UNL1        0.1002
      9 C          -0.2385    7.3204   -2.1236 C.2     1  UNL1        0.2665
     10 O          -0.8472    8.1534   -1.4860 O.2     1  UNL1       -0.2692
     11 N          -0.0902    6.0733   -1.6346 N.am    1  UNL1       -0.2974
     12 CA         -0.6644    5.7238   -0.3329 C.3     1  UNL1        0.1191
     13 HA         -0.8115    6.5906    0.3115 H       1  UNL1        0.0614
     14 C           0.0451    4.5629    0.3564 C.3     1  UNL1        0.0584
     15 H           0.2335    4.6973    1.4216 H       1  UNL1        0.0528
     16 C           1.2044    3.9151   -0.4158 C.3     1  UNL1       -0.0268
     17 C           1.2916    2.4467    0.0029 C.3     1  UNL1       -0.0134
     18 C          -0.0215    1.7317    0.0116 C.2     1  UNL1        0.0416
     19 CA         -1.2196    2.3425    0.0208 C.2     1  UNL1        0.0734
     20 N          -1.1624    3.7536    0.0018 N.am    1  UNL1       -0.2619
     21 C          -1.8825    4.8195   -0.4251 C.2     1  UNL1        0.2423
     22 O          -3.0409    4.9858   -0.7443 O.2     1  UNL1       -0.2731
     23 C          -2.4892    1.5998    0.0531 C.2     1  UNL1        0.0870
     24 O          -3.5452    2.2014    0.0602 O.co2   1  UNL1       -0.5433
     25 CL          0.0021   -0.0041    0.0020 Cl      1  UNL1       -0.0863
     26 H          -2.8602    5.9131   -7.3614 H       1  UNL1        0.0618
     27 H          -0.8485    4.6323   -6.7486 H       1  UNL1        0.0618
     28 H           0.6297    5.4454   -4.9550 H       1  UNL1        0.0622
     29 H          -1.9216    8.8142   -4.3795 H       1  UNL1        0.0622
     30 H          -3.3942    8.0066   -6.1802 H       1  UNL1        0.0618
     31 H           0.3966    5.4071   -2.1445 H       1  UNL1        0.1497
     32 H           2.1377    4.4231   -0.1733 H       1  UNL1        0.0287
     33 H           1.0166    3.9818   -1.4874 H       1  UNL1        0.0287
     34 H           1.7198    2.3968    1.0040 H       1  UNL1        0.0323
     35 H           1.9618    1.9317   -0.6854 H       1  UNL1        0.0323
     36 H1          0.9396    9.4024   -4.4250 H       1  UNL1        0.2005
     37 H2         -0.4106    9.5921   -3.4727 H       1  UNL1        0.2005
     38 OXT        -2.4812    0.2518    0.0748 O.co2   1  UNL1       -0.5433
     39 N           0.5014    9.1437   -3.5426 N.4     1  UNL1        0.2307
     40 H3          1.0932    9.4654   -2.7676 H       1  UNL1        0.2005
@<TRIPOS>UNITY_ATOM_ATTR
38 1
charge -1
39 1
charge 1
@<TRIPOS>BOND
     1     1     6   ar
     2     1     2   ar
     3     1    26    1
     4     2     3   ar
     5     2    27    1
     6     3     4   ar
     7     3    28    1
     8     4     5   ar
     9     4     7    1
    10     5     6   ar
    11     5    29    1
    12     6    30    1
    13     7     8    1
    14     7     9    1
    15     7    39    1
    16     9    10    2
    17     9    11   am
    18    11    12    1
    19    11    31    1
    20    12    13    1
    21    12    21    1
    22    12    14    1
    23    14    15    1
    24    14    20    1
    25    14    16    1
    26    16    17    1
    27    16    32    1
    28    16    33    1
    29    17    18    1
    30    17    34    1
    31    17    35    1
    32    18    19    2
    33    18    25    1
    34    19    20    1
    35    19    23    1
    36    20    21   am
    37    21    22    2
    38    23    24   ar
    39    23    38   ar
    40    36    39    1
    41    37    39    1
    42    39    40    1
