@<TRIPOS>MOLECULE
ZINC01238583
 17 16 0 0 0
SMALL
GASTEIGER

@<TRIPOS>ATOM
      1 C          -0.7548    3.4910    1.2773 C.3     1  UNL1       -0.0618
      2 C          -0.7340    1.9612    1.2689 C.3     1  UNL1       -0.0158
      3 C          -0.0179    1.4678    0.0101 C.3     1  UNL1        0.1231
      4 C           1.4175    1.9974   -0.0007 C.3     1  UNL1       -0.0247
      5 C           0.0021   -0.0041    0.0020 C.1     1  UNL1       -0.0713
      6 C           0.0180   -1.1779   -0.0044 C.1     1  UNL1       -0.1163
      7 O          -0.7090    1.9412   -1.1476 O.3     1  UNL1       -0.3768
      8 H           0.2678    3.8683    1.2696 H       1  UNL1        0.0231
      9 H          -1.2820    3.8521    0.3943 H       1  UNL1        0.0231
     10 H          -1.2650    3.8426    2.1741 H       1  UNL1        0.0231
     11 H          -1.7566    1.5839    1.2767 H       1  UNL1        0.0300
     12 H          -0.2068    1.6001    2.1520 H       1  UNL1        0.0300
     13 H           1.9277    1.6458   -0.8975 H       1  UNL1        0.0267
     14 H           1.4027    3.0872    0.0052 H       1  UNL1        0.0267
     15 H           1.9447    1.6363    0.8823 H       1  UNL1        0.0267
     16 H           0.0322   -2.2278   -0.0102 H       1  UNL1        0.1229
     17 H          -1.6272    1.6437   -1.2065 H       1  UNL1        0.2114
@<TRIPOS>BOND
     1     1     2    1
     2     1     8    1
     3     1     9    1
     4     1    10    1
     5     2     3    1
     6     2    11    1
     7     2    12    1
     8     3     4    1
     9     3     5    1
    10     3     7    1
    11     4    13    1
    12     4    14    1
    13     4    15    1
    14     5     6    3
    15     6    16    1
    16     7    17    1
