@<TRIPOS>MOLECULE
ZINC03830469
 58 61 0 0 0
SMALL
GASTEIGER

@<TRIPOS>ATOM
      1 C          -4.5359   -0.1774    2.4281 C.3     1  UNL1       -0.0172
      2 C          -5.0556   -0.8993    1.1832 C.3     1  UNL1        0.1718
      3 C          -4.7433   -0.0626   -0.0591 C.3     1  UNL1       -0.0172
      4 C          -6.5460   -1.0902    1.2986 C.2     1  UNL1        0.0871
      5 O          -7.0152   -2.2035    1.2863 O.co2   1  UNL1       -0.5457
      6 O          -4.4194   -2.1739    1.0713 O.2     1  UNL1       -0.3812
      7 N          -3.0096   -2.1059    0.9570 N.2     1  UNL1       -0.0767
      8 C          -2.3113   -3.2004    0.8482 C.2     1  UNL1        0.1898
      9 C          -2.9704   -4.5158    0.9969 C.ar    1  UNL1        0.1067
     10 C          -4.2350   -4.6029    1.5148 C.ar    1  UNL1        0.0067
     11 S          -4.4989   -6.3701    1.4551 S.2     1  UNL1       -0.0604
     12 C          -2.9158   -6.8122    0.7538 C.ar    1  UNL1        0.1562
     13 N          -2.3434   -5.6304    0.6234 N.ar    1  UNL1       -0.2233
     14 N          -2.4219   -8.0643    0.4281 N.pl3   1  UNL1       -0.3375
     15 C          -0.8566   -3.1272    0.5756 C.2     1  UNL1        0.2684
     16 O          -0.2053   -4.1480    0.4741 O.2     1  UNL1       -0.2683
     17 N          -0.2559   -1.9283    0.4401 N.am    1  UNL1       -0.2963
     18 CA          1.1823   -1.8559    0.1705 C.3     1  UNL1        0.1286
     19 HA          1.5894   -2.7716   -0.2583 H       1  UNL1        0.0622
     20 C           1.6247   -0.5852   -0.5312 C.3     1  UNL1        0.1041
     21 H           2.3686   -0.7366   -1.3134 H       1  UNL1        0.0644
     22 N           2.1666   -0.0624    0.7522 N.am    1  UNL1       -0.2532
     23 C           2.0163   -1.2597    1.3066 C.2     1  UNL1        0.2438
     24 O           2.4123   -1.7249    2.3544 O.2     1  UNL1       -0.2731
     25 CA          2.4746    1.2681    1.0679 C.2     1  UNL1        0.0658
     26 C           1.9788    2.2586    0.3400 C.2     1  UNL1        0.0277
     27 C           1.1197    2.1690   -0.8792 C.3     1  UNL1        0.0246
     28 S           0.2836    0.5578   -1.0073 S.3     1  UNL1       -0.1309
     29 C           2.3254    3.6512    0.8002 C.3     1  UNL1        0.1747
     30 N           3.1333    4.3172   -0.2245 N.ar    1  UNL1       -0.1998
     31 C           4.3390    3.8552   -0.4921 C.ar    1  UNL1        0.1715
     32 C           5.1281    4.4547   -1.4555 C.ar    1  UNL1        0.0021
     33 C           4.6407    5.5601   -2.1359 C.ar    1  UNL1       -0.0506
     34 C           3.3706    6.0201   -1.8236 C.ar    1  UNL1        0.0021
     35 C           2.6377    5.3663   -0.8513 C.ar    1  UNL1        0.1715
     36 C           3.3532    1.5667    2.2132 C.2     1  UNL1        0.0861
     37 O           3.1901    0.9905    3.2705 O.co2   1  UNL1       -0.5433
     38 H          -3.4579   -0.0394    2.3447 H       1  UNL1        0.0273
     39 H          -5.0212    0.7948    2.5135 H       1  UNL1        0.0273
     40 H          -4.7584   -0.7735    3.3132 H       1  UNL1        0.0273
     41 H          -5.1134   -0.5768   -0.9460 H       1  UNL1        0.0273
     42 H          -5.2285    0.9097    0.0263 H       1  UNL1        0.0273
     43 H          -3.6653    0.0755   -0.1426 H       1  UNL1        0.0273
     44 H          -4.8922   -3.8198    1.8630 H       1  UNL1        0.0716
     45 H          -2.9648   -8.8539    0.5787 H       1  UNL1        0.1442
     46 H          -1.5332   -8.1516    0.0495 H       1  UNL1        0.1442
     47 H          -0.7758   -1.1134    0.5210 H       1  UNL1        0.1499
     48 H           1.7412    2.3169   -1.7624 H       1  UNL1        0.0425
     49 H           0.3673    2.9567   -0.8413 H       1  UNL1        0.0425
     50 H           1.4090    4.2178    0.9655 H       1  UNL1        0.1083
     51 H           2.8913    3.5962    1.7301 H       1  UNL1        0.1083
     52 H           4.7129    2.9961    0.0452 H       1  UNL1        0.1376
     53 H           6.1133    4.0694   -1.6728 H       1  UNL1        0.0677
     54 H           5.2364    6.0513   -2.8911 H       1  UNL1        0.0621
     55 H           2.9590    6.8784   -2.3339 H       1  UNL1        0.0677
     56 H           1.6476    5.7184   -0.6021 H       1  UNL1        0.1376
     57 O          -7.3522   -0.0233    1.4151 O.co2   1  UNL1       -0.5457
     58 OXT         4.3373    2.4789    2.0877 O.co2   1  UNL1       -0.5433
@<TRIPOS>UNITY_ATOM_ATTR
30 1
charge 1
57 1
charge -1
58 1
charge -1
@<TRIPOS>BOND
     1     1     2    1
     2     1    38    1
     3     1    39    1
     4     1    40    1
     5     2     3    1
     6     2     4    1
     7     2     6    1
     8     3    41    1
     9     3    42    1
    10     3    43    1
    11     4     5   ar
    12     4    57   ar
    13     6     7    1
    14     7     8    2
    15     8     9    1
    16     8    15    1
    17     9    13   ar
    18     9    10   ar
    19    10    11   ar
    20    10    44    1
    21    11    12   ar
    22    12    13   ar
    23    12    14    1
    24    14    45    1
    25    14    46    1
    26    15    16    2
    27    15    17   am
    28    17    18    1
    29    17    47    1
    30    18    19    1
    31    18    23    1
    32    18    20    1
    33    20    21    1
    34    20    28    1
    35    20    22    1
    36    22    23   am
    37    22    25    1
    38    23    24    2
    39    25    26    2
    40    25    36    1
    41    26    27    1
    42    26    29    1
    43    27    28    1
    44    27    48    1
    45    27    49    1
    46    29    30    1
    47    29    50    1
    48    29    51    1
    49    30    35   ar
    50    30    31   ar
    51    31    32   ar
    52    31    52    1
    53    32    33   ar
    54    32    53    1
    55    33    34   ar
    56    33    54    1
    57    34    35   ar
    58    34    55    1
    59    35    56    1
    60    36    37   ar
    61    36    58   ar
