@<TRIPOS>MOLECULE
ZINC02038789
 33 34 0 0 0
SMALL
GASTEIGER

@<TRIPOS>ATOM
      1 C          -0.7288    1.5792    1.2668 C.3     1  UNL1       -0.0653
      2 C          -0.0127    1.0858    0.0080 C.3     1  UNL1       -0.0559
      3 C          -0.7527    1.5927   -1.2315 C.3     1  UNL1       -0.0522
      4 C          -0.0366    1.0992   -2.4903 C.3     1  UNL1       -0.0334
      5 C          -0.7766    1.6061   -3.7298 C.3     1  UNL1        0.1150
      6 H          -0.8598    2.6926   -3.7063 H       1  UNL1        0.0490
      7 C          -2.1479    0.9703   -3.8266 C.2     1  UNL1        0.2415
      8 O          -3.0522    1.0662   -3.0241 O.2     1  UNL1       -0.2734
      9 N          -2.1630    0.2768   -4.9806 N.am    1  UNL1       -0.2266
     10 N          -0.9525    0.3826   -5.6600 N.am    1  UNL1       -0.1875
     11 C          -0.0724    1.1516   -4.9916 C.2     1  UNL1        0.2482
     12 O           1.0587    1.4265   -5.3323 O.2     1  UNL1       -0.2729
     13 C          -0.6833   -0.2351   -6.8863 C.ar    1  UNL1        0.0560
     14 C           0.5547   -0.0677   -7.4928 C.ar    1  UNL1       -0.0386
     15 C           0.8191   -0.6830   -8.7007 C.ar    1  UNL1       -0.0599
     16 C          -0.1511   -1.4561   -9.3115 C.ar    1  UNL1       -0.0616
     17 C          -1.3867   -1.6205   -8.7128 C.ar    1  UNL1       -0.0599
     18 C          -1.6556   -1.0121   -7.5023 C.ar    1  UNL1       -0.0386
     19 H          -0.7436    2.6691    1.2728 H       1  UNL1        0.0230
     20 H          -1.7514    1.2020    1.2746 H       1  UNL1        0.0230
     21 H          -0.2017    1.2182    2.1499 H       1  UNL1        0.0230
     22 H           0.0021   -0.0041    0.0020 H       1  UNL1        0.0263
     23 H           1.0099    1.4631    0.0003 H       1  UNL1        0.0263
     24 H          -1.7753    1.2154   -1.2238 H       1  UNL1        0.0266
     25 H          -0.7675    2.6825   -1.2255 H       1  UNL1        0.0266
     26 H           0.9860    1.4765   -2.4981 H       1  UNL1        0.0277
     27 H          -0.0218    0.0093   -2.4963 H       1  UNL1        0.0277
     28 H          -2.9235   -0.2341   -5.2991 H       1  UNL1        0.1734
     29 H           1.3113    0.5398   -7.0186 H       1  UNL1        0.0637
     30 H           1.7832   -0.5566   -9.1708 H       1  UNL1        0.0618
     31 H           0.0566   -1.9329  -10.2580 H       1  UNL1        0.0618
     32 H          -2.1425   -2.2249   -9.1923 H       1  UNL1        0.0618
     33 H          -2.6208   -1.1408   -7.0352 H       1  UNL1        0.0637
@<TRIPOS>BOND
     1     1     2    1
     2     1    19    1
     3     1    20    1
     4     1    21    1
     5     2     3    1
     6     2    22    1
     7     2    23    1
     8     3     4    1
     9     3    24    1
    10     3    25    1
    11     4     5    1
    12     4    26    1
    13     4    27    1
    14     5     6    1
    15     5    11    1
    16     5     7    1
    17     7     8    2
    18     7     9   am
    19     9    10    1
    20     9    28    1
    21    10    11   am
    22    10    13    1
    23    11    12    2
    24    13    18   ar
    25    13    14   ar
    26    14    15   ar
    27    14    29    1
    28    15    16   ar
    29    15    30    1
    30    16    17   ar
    31    16    31    1
    32    17    18   ar
    33    17    32    1
    34    18    33    1
