@<TRIPOS>MOLECULE
ZINC03831012
 49 51 0 0 0
SMALL
GASTEIGER

@<TRIPOS>ATOM
      1 C           1.2905    2.7919    1.9965 C.3     1  UNL1       -0.0245
      2 C           0.1164    1.8269    2.1725 C.3     1  UNL1       -0.0348
      3 C          -1.3266    3.1829    0.7790 C.3     1  UNL1       -0.0348
      4 C          -2.3013    3.4703    1.9228 C.3     1  UNL1       -0.0245
      5 C           0.0376    1.4485   -0.2177 C.3     1  UNL1       -0.0161
      6 C           0.4359   -0.0230   -0.0876 C.3     1  UNL1        0.0492
      7 N           1.1974   -0.4293   -1.2714 N.pl3   1  UNL1       -0.3382
      8 C           1.6696   -1.7315   -1.3804 C.ar    1  UNL1        0.0393
      9 C           1.5492   -2.6038   -0.3133 C.ar    1  UNL1       -0.0398
     10 C           2.0114   -3.9058   -0.3976 C.ar    1  UNL1       -0.0560
     11 C           2.6065   -4.3563   -1.5634 C.ar    1  UNL1       -0.0359
     12 C           2.7344   -3.4999   -2.6349 C.ar    1  UNL1        0.0282
     13 C           2.2683   -2.1685   -2.5832 C.ar    1  UNL1        0.0570
     14 C           2.4013   -1.2522   -3.7021 C.ar    1  UNL1        0.1970
     15 O           1.9604   -0.1317   -3.5166 O.2     1  UNL1       -0.2865
     16 C           2.9826   -1.4866   -5.0173 C.ar    1  UNL1        0.0361
     17 C           3.0062   -0.4530   -5.9691 C.ar    1  UNL1       -0.0498
     18 C           3.5487   -0.6673   -7.2016 C.ar    1  UNL1       -0.0610
     19 C           4.0885   -1.8977   -7.5499 C.ar    1  UNL1       -0.0607
     20 C           4.0810   -2.9364   -6.6382 C.ar    1  UNL1       -0.0473
     21 C           3.5348   -2.7298   -5.3883 C.ar    1  UNL1        0.0236
     22 S           3.4866   -4.0099   -4.1598 S.2     1  UNL1       -0.0877
     23 C           3.1112   -5.7730   -1.6596 C.3     1  UNL1       -0.0386
     24 H           1.9018    2.4704    1.1533 H       1  UNL1        0.0281
     25 H           0.9105    3.7959    1.8078 H       1  UNL1        0.0281
     26 H           1.8957    2.7970    2.9030 H       1  UNL1        0.0281
     27 H          -0.4749    2.1280    3.0373 H       1  UNL1        0.0812
     28 H           0.4961    0.8168    2.3260 H       1  UNL1        0.0812
     29 H          -0.5418    3.9393    0.7717 H       1  UNL1        0.0812
     30 H          -1.8627    3.2064   -0.1697 H       1  UNL1        0.0812
     31 H          -3.0080    2.6454    2.0139 H       1  UNL1        0.0281
     32 H          -1.7463    3.5778    2.8548 H       1  UNL1        0.0281
     33 H          -2.8440    4.3924    1.7147 H       1  UNL1        0.0281
     34 H           0.9348    2.0618   -0.3007 H       1  UNL1        0.0830
     35 H          -0.5769    1.5812   -1.1081 H       1  UNL1        0.0830
     36 H           1.0504   -0.1557    0.8029 H       1  UNL1        0.0514
     37 H          -0.4613   -0.6364   -0.0045 H       1  UNL1        0.0514
     38 H           1.3719    0.2107   -1.9790 H       1  UNL1        0.1463
     39 H           1.0862   -2.2630    0.6010 H       1  UNL1        0.0636
     40 H           1.9074   -4.5709    0.4470 H       1  UNL1        0.0621
     41 H           2.5934    0.5143   -5.7234 H       1  UNL1        0.0625
     42 H           3.5591    0.1375   -7.9218 H       1  UNL1        0.0618
     43 H           4.5134   -2.0433   -8.5321 H       1  UNL1        0.0618
     44 H           4.4981   -3.8974   -6.9007 H       1  UNL1        0.0629
     45 H           2.3158   -6.4175   -2.0338 H       1  UNL1        0.0278
     46 H           3.9606   -5.8106   -2.3417 H       1  UNL1        0.0278
     47 H           3.4224   -6.1157   -0.6727 H       1  UNL1        0.0278
     48 N          -0.7472    1.8370    0.9730 N.4     1  UNL1        0.2359
     49 H          -1.5093    1.1617    1.1050 H       1  UNL1        0.2034
@<TRIPOS>UNITY_ATOM_ATTR
48 1
charge 1
@<TRIPOS>BOND
     1     1     2    1
     2     1    24    1
     3     1    25    1
     4     1    26    1
     5     2    27    1
     6     2    28    1
     7     2    48    1
     8     3     4    1
     9     3    29    1
    10     3    30    1
    11     3    48    1
    12     4    31    1
    13     4    32    1
    14     4    33    1
    15     5     6    1
    16     5    34    1
    17     5    35    1
    18     5    48    1
    19     6     7    1
    20     6    36    1
    21     6    37    1
    22     7     8    1
    23     7    38    1
    24     8    13   ar
    25     8     9   ar
    26     9    10   ar
    27     9    39    1
    28    10    11   ar
    29    10    40    1
    30    11    12   ar
    31    11    23    1
    32    12    22   ar
    33    12    13   ar
    34    13    14   ar
    35    14    15    2
    36    14    16   ar
    37    16    21   ar
    38    16    17   ar
    39    17    18   ar
    40    17    41    1
    41    18    19   ar
    42    18    42    1
    43    19    20   ar
    44    19    43    1
    45    20    21   ar
    46    20    44    1
    47    21    22   ar
    48    23    45    1
    49    23    46    1
    50    23    47    1
    51    48    49    1
