@<TRIPOS>MOLECULE
ZINC15848233
 36 36 0 0 0
SMALL
GASTEIGER

@<TRIPOS>ATOM
      1 C           1.1569    5.1384    4.4862 C.3     1  UNL1        0.0557
      2 C           0.1700    6.1026    3.8250 C.3     1  UNL1        0.0405
      3 CL          0.4663    7.7748    4.4304 Cl      1  UNL1       -0.1237
      4 N           0.9161    3.7797    3.9942 N.am    1  UNL1       -0.1401
      5 C           1.5636    3.3349    2.8990 C.2     1  UNL1        0.3246
      6 O           2.3468    4.0607    2.3197 O.2     1  UNL1       -0.2507
      7 N           1.3421    2.0848    2.4464 N.am    1  UNL1       -0.2876
      8 C           2.0458    1.6014    1.2560 C.3     1  UNL1        0.1036
      9 H           3.0505    2.0232    1.2303 H       1  UNL1        0.0575
     10 C           2.1334    0.0727    1.2986 C.3     1  UNL1        0.1065
     11 H           2.6999   -0.2842    0.4385 H       1  UNL1        0.0640
     12 C           0.7175   -0.5102    1.2573 C.3     1  UNL1        0.1112
     13 H           0.1670   -0.1932    2.1431 H       1  UNL1        0.0646
     14 C           0.0021   -0.0041    0.0020 C.3     1  UNL1        0.1129
     15 H           0.5303   -0.3556   -0.8843 H       1  UNL1        0.0647
     16 O          -0.0173    1.4248    0.0099 O.3     1  UNL1       -0.3414
     17 C           1.2791    2.0260    0.0007 C.3     1  UNL1        0.1777
     18 H           1.1765    3.1110   -0.0129 H       1  UNL1        0.0928
     19 O           1.9937    1.6000   -1.1611 O.3     1  UNL1       -0.3654
     20 C          -1.4332   -0.5337   -0.0158 C.3     1  UNL1        0.0730
     21 O          -2.0645   -0.1576   -1.2414 O.3     1  UNL1       -0.3924
     22 O           0.7892   -1.9370    1.2235 O.3     1  UNL1       -0.3865
     23 O           2.7841   -0.3371    2.5031 O.3     1  UNL1       -0.3871
     24 N           0.0845    3.0089    4.6093 N.2     1  UNL1        0.0527
     25 O          -0.5006    3.4109    5.5991 O.2     1  UNL1       -0.1256
     26 H           1.0200    5.1630    5.5672 H       1  UNL1        0.0498
     27 H           2.1762    5.4379    4.2422 H       1  UNL1        0.0498
     28 H           0.3069    6.0780    2.7439 H       1  UNL1        0.0446
     29 H          -0.8493    5.8031    4.0690 H       1  UNL1        0.0446
     30 H           0.7167    1.5053    2.9089 H       1  UNL1        0.1509
     31 H           1.5644    1.8350   -1.9951 H       1  UNL1        0.2125
     32 H          -1.4205   -1.6204    0.0677 H       1  UNL1        0.0584
     33 H          -1.9869   -0.1113    0.8227 H       1  UNL1        0.0584
     34 H          -2.9793   -0.4606   -1.3218 H       1  UNL1        0.2095
     35 H          -0.0730   -2.3735    1.1915 H       1  UNL1        0.2100
     36 H           2.8680   -1.2958    2.5982 H       1  UNL1        0.2100
@<TRIPOS>BOND
     1     1     2    1
     2     1     4    1
     3     1    26    1
     4     1    27    1
     5     2     3    1
     6     2    28    1
     7     2    29    1
     8     4     5   am
     9     4    24    1
    10     5     6    2
    11     5     7   am
    12     7     8    1
    13     7    30    1
    14     8     9    1
    15     8    17    1
    16     8    10    1
    17    10    11    1
    18    10    12    1
    19    10    23    1
    20    12    13    1
    21    12    14    1
    22    12    22    1
    23    14    15    1
    24    14    16    1
    25    14    20    1
    26    16    17    1
    27    17    18    1
    28    17    19    1
    29    19    31    1
    30    20    21    1
    31    20    32    1
    32    20    33    1
    33    21    34    1
    34    22    35    1
    35    23    36    1
    36    24    25    2
