@<TRIPOS>MOLECULE
ZINC03830455
 44 46 0 0 0
SMALL
GASTEIGER

@<TRIPOS>ATOM
      1 C           8.7580    3.2184   -0.8942 C.3     1  UNL1        0.0369
      2 O           7.3498    3.0681   -1.0855 O.3     1  UNL1       -0.3786
      3 C           6.6235    2.8150    0.1189 C.3     1  UNL1        0.0712
      4 C           5.1769    2.5532   -0.2126 C.2     1  UNL1       -0.0112
      5 CA          4.3738    2.3733    0.8229 C.2     1  UNL1        0.0620
      6 N           2.9915    2.1730    0.6290 N.am    1  UNL1       -0.2533
      7 C           2.3363    1.7322   -0.6388 C.3     1  UNL1        0.1041
      8 H           2.3313    0.6611   -0.8410 H       1  UNL1        0.0644
      9 CA          1.0897    2.2900    0.0278 C.3     1  UNL1        0.1286
     10 HA          0.7713    3.2483   -0.3826 H       1  UNL1        0.0622
     11 C           1.8670    2.4217    1.3185 C.2     1  UNL1        0.2438
     12 O           1.5925    2.6525    2.4772 O.2     1  UNL1       -0.2731
     13 N          -0.0059    1.3208    0.1086 N.am    1  UNL1       -0.2963
     14 C          -1.2801    1.7502    0.1998 C.2     1  UNL1        0.2684
     15 O          -1.5150    2.9378    0.3045 O.2     1  UNL1       -0.2683
     16 C          -2.3947    0.7741    0.1725 C.2     1  UNL1        0.1897
     17 N          -3.6275    1.1938    0.1344 N.2     1  UNL1       -0.0779
     18 O          -3.9007    2.5774    0.0075 O.2     1  UNL1       -0.3964
     19 C          -5.2937    2.8946   -0.0211 C.3     1  UNL1        0.1072
     20 C          -2.1078   -0.6765    0.1884 C.ar    1  UNL1        0.1067
     21 C          -3.1213   -1.5853    0.0400 C.ar    1  UNL1        0.0067
     22 S          -2.2098   -3.1203    0.1368 S.2     1  UNL1       -0.0604
     23 C          -0.5871   -2.4064    0.3628 C.ar    1  UNL1        0.1562
     24 N          -0.8592   -1.1154    0.3417 N.ar    1  UNL1       -0.2233
     25 N           0.6344   -3.0407    0.5147 N.pl3   1  UNL1       -0.3375
     26 S           3.0575    2.7731   -1.9527 S.3     1  UNL1       -0.1311
     27 C           4.8384    2.5310   -1.6677 C.3     1  UNL1        0.0208
     28 C           4.9276    2.3823    2.1890 C.2     1  UNL1        0.0860
     29 O           4.2114    2.1263    3.1366 O.co2   1  UNL1       -0.5433
     30 H           8.9461    4.0564   -0.2231 H       1  UNL1        0.0524
     31 H           9.1650    2.3057   -0.4589 H       1  UNL1        0.0524
     32 H           9.2369    3.4077   -1.8549 H       1  UNL1        0.0524
     33 H           6.6946    3.6824    0.7751 H       1  UNL1        0.0607
     34 H           7.0446    1.9440    0.6210 H       1  UNL1        0.0607
     35 H           0.1855    0.3700    0.0925 H       1  UNL1        0.1499
     36 H          -5.7628    2.3951   -0.8688 H       1  UNL1        0.0687
     37 H          -5.7621    2.5578    0.9037 H       1  UNL1        0.0687
     38 H          -5.4189    3.9729   -0.1200 H       1  UNL1        0.0687
     39 H          -4.1796   -1.4203   -0.0981 H       1  UNL1        0.0716
     40 H           0.6822   -4.0095    0.5063 H       1  UNL1        0.1442
     41 H           1.4423   -2.5162    0.6295 H       1  UNL1        0.1442
     42 H           5.1375    1.5704   -2.0870 H       1  UNL1        0.0424
     43 H           5.3897    3.3242   -2.1725 H       1  UNL1        0.0424
     44 OXT         6.2283    2.6744    2.3869 O.co2   1  UNL1       -0.5433
@<TRIPOS>UNITY_ATOM_ATTR
44 1
charge -1
@<TRIPOS>BOND
     1     1     2    1
     2     1    30    1
     3     1    31    1
     4     1    32    1
     5     2     3    1
     6     3     4    1
     7     3    33    1
     8     3    34    1
     9     4    27    1
    10     4     5    2
    11     5     6    1
    12     5    28    1
    13     6    11   am
    14     6     7    1
    15     7     8    1
    16     7     9    1
    17     7    26    1
    18     9    10    1
    19     9    11    1
    20     9    13    1
    21    11    12    2
    22    13    14   am
    23    13    35    1
    24    14    15    2
    25    14    16    1
    26    16    17    2
    27    16    20    1
    28    17    18    1
    29    18    19    1
    30    19    36    1
    31    19    37    1
    32    19    38    1
    33    20    24   ar
    34    20    21   ar
    35    21    22   ar
    36    21    39    1
    37    22    23   ar
    38    23    24   ar
    39    23    25    1
    40    25    40    1
    41    25    41    1
    42    26    27    1
    43    27    42    1
    44    27    43    1
    45    28    29   ar
    46    28    44   ar
