@<TRIPOS>MOLECULE
ZINC00057254
 41 42 0 0 0
SMALL
GASTEIGER

@<TRIPOS>ATOM
      1 C           1.6877    1.8892   -0.1300 C.3     1  UNL1       -0.0433
      2 C          -0.3126    1.8853   -1.4943 C.3     1  UNL1       -0.0433
      3 C           0.2578   -0.0642   -0.1764 C.3     1  UNL1       -0.0291
      4 C           0.6795   -0.5159    1.2233 C.3     1  UNL1        0.0247
      5 C           0.6279   -2.0430    1.3034 C.3     1  UNL1        0.1220
      6 C           1.0433   -2.4879    2.6820 C.ar    1  UNL1       -0.0115
      7 C           0.9918   -3.8271    3.0208 C.ar    1  UNL1       -0.0555
      8 C           1.3770   -4.2358    4.2839 C.ar    1  UNL1       -0.0614
      9 C           1.8051   -3.3042    5.2112 C.ar    1  UNL1       -0.0617
     10 C           1.8516   -1.9644    4.8741 C.ar    1  UNL1       -0.0614
     11 C           1.4705   -1.5563    3.6096 C.ar    1  UNL1       -0.0555
     12 C           1.5661   -2.6316    0.2816 C.ar    1  UNL1        0.0068
     13 C           1.0679   -3.4070   -0.7487 C.ar    1  UNL1       -0.0541
     14 C           1.9278   -3.9431   -1.6887 C.ar    1  UNL1       -0.0613
     15 C           3.2878   -3.7129   -1.5933 C.ar    1  UNL1       -0.0604
     16 C           3.7876   -2.9422   -0.5608 C.ar    1  UNL1       -0.0430
     17 C           2.9267   -2.4009    0.3776 C.ar    1  UNL1        0.0472
     18 CL          3.5537   -1.4323    1.6746 Cl      1  UNL1       -0.0832
     19 O          -0.7039   -2.4890    1.0401 O.3     1  UNL1       -0.3790
     20 H           2.2923    1.4762   -0.9374 H       1  UNL1        0.0777
     21 H           1.6956    2.9776   -0.1903 H       1  UNL1        0.0777
     22 H           2.0994    1.5755    0.8293 H       1  UNL1        0.0777
     23 H          -1.3550    1.5686   -1.5270 H       1  UNL1        0.0777
     24 H          -0.2623    2.9736   -1.5257 H       1  UNL1        0.0777
     25 H           0.2196    1.4721   -2.3512 H       1  UNL1        0.0777
     26 H          -0.7581   -0.4044   -0.3773 H       1  UNL1        0.0815
     27 H           0.9364   -0.4900   -0.9155 H       1  UNL1        0.0815
     28 H           1.6954   -0.1757    1.4241 H       1  UNL1        0.0352
     29 H           0.0009   -0.0901    1.9624 H       1  UNL1        0.0352
     30 H           0.6538   -4.5545    2.2976 H       1  UNL1        0.0621
     31 H           1.3410   -5.2826    4.5472 H       1  UNL1        0.0618
     32 H           2.1035   -3.6232    6.1989 H       1  UNL1        0.0618
     33 H           2.1860   -1.2366    5.5986 H       1  UNL1        0.0618
     34 H           1.5068   -0.5095    3.3462 H       1  UNL1        0.0621
     35 H           0.0061   -3.5909   -0.8213 H       1  UNL1        0.0622
     36 H           1.5377   -4.5457   -2.4956 H       1  UNL1        0.0618
     37 H           3.9596   -4.1351   -2.3259 H       1  UNL1        0.0618
     38 H           4.8500   -2.7627   -0.4861 H       1  UNL1        0.0632
     39 H          -1.3627   -2.1483    1.6605 H       1  UNL1        0.2111
     40 N           0.2923    1.4125   -0.2313 N.4     1  UNL1        0.2310
     41 H          -0.2466    1.7882    0.5578 H       1  UNL1        0.2028
@<TRIPOS>UNITY_ATOM_ATTR
40 1
charge 1
@<TRIPOS>BOND
     1     1    20    1
     2     1    21    1
     3     1    22    1
     4     1    40    1
     5     2    23    1
     6     2    24    1
     7     2    25    1
     8     2    40    1
     9     3     4    1
    10     3    26    1
    11     3    27    1
    12     3    40    1
    13     4     5    1
    14     4    28    1
    15     4    29    1
    16     5     6    1
    17     5    12    1
    18     5    19    1
    19     6    11   ar
    20     6     7   ar
    21     7     8   ar
    22     7    30    1
    23     8     9   ar
    24     8    31    1
    25     9    10   ar
    26     9    32    1
    27    10    11   ar
    28    10    33    1
    29    11    34    1
    30    12    17   ar
    31    12    13   ar
    32    13    14   ar
    33    13    35    1
    34    14    15   ar
    35    14    36    1
    36    15    16   ar
    37    15    37    1
    38    16    17   ar
    39    16    38    1
    40    17    18    1
    41    19    39    1
    42    40    41    1
