@<TRIPOS>MOLECULE
ZINC01567421
 46 50 0 0 0
SMALL
GASTEIGER

@<TRIPOS>ATOM
      1 C           3.7219    4.4393    3.4418 C.ar    1  UNL1       -0.0599
      2 C           4.6721    5.2264    2.8193 C.ar    1  UNL1       -0.0606
      3 C           5.2623    4.8001    1.6409 C.ar    1  UNL1       -0.0462
      4 C           4.8967    3.5857    1.0920 C.ar    1  UNL1        0.0341
      5 C           3.9372    2.7857    1.7175 C.ar    1  UNL1        0.0479
      6 C           3.3528    3.2224    2.8963 C.ar    1  UNL1       -0.0393
      7 N           3.5700    1.5558    1.1609 N.pl3   1  UNL1       -0.2978
      8 C           4.5031    0.7170    0.5421 C.ar    1  UNL1        0.0479
      9 C           4.4134   -0.6565    0.6818 C.ar    1  UNL1       -0.0393
     10 C           5.3394   -1.4779    0.0631 C.ar    1  UNL1       -0.0599
     11 C           6.3563   -0.9362   -0.7000 C.ar    1  UNL1       -0.0606
     12 C           6.4544    0.4372   -0.8509 C.ar    1  UNL1       -0.0462
     13 C           5.5316    1.2616   -0.2356 C.ar    1  UNL1        0.0341
     14 S           5.6304    3.0160   -0.4097 S.3     1  UNL1       -0.0857
     15 C           2.1697    1.1315    1.2334 C.3     1  UNL1        0.0252
     16 C           1.4202    1.6328   -0.0027 C.3     1  UNL1        0.0184
     17 H           1.9335    1.2949   -0.9030 H       1  UNL1        0.0371
     18 C           1.3652    3.1631    0.0161 C.3     1  UNL1       -0.0273
     19 C          -0.7182    3.1280    1.2517 C.3     1  UNL1       -0.0316
     20 C          -0.7220    1.5968    1.2685 C.3     1  UNL1       -0.0090
     21 C          -0.0127    1.0858    0.0080 C.3     1  UNL1       -0.0223
     22 C          -0.7459    1.6102   -1.2331 C.3     1  UNL1       -0.0090
     23 C          -0.7474    3.1567   -1.1695 C.3     1  UNL1       -0.0316
     24 H           3.2641    4.7764    4.3601 H       1  UNL1        0.0618
     25 H           4.9546    6.1748    3.2519 H       1  UNL1        0.0618
     26 H           6.0051    5.4140    1.1533 H       1  UNL1        0.0629
     27 H           2.6093    2.6130    3.3886 H       1  UNL1        0.0636
     28 H           3.6219   -1.0873    1.2771 H       1  UNL1        0.0636
     29 H           5.2671   -2.5494    0.1777 H       1  UNL1        0.0618
     30 H           7.0754   -1.5843   -1.1789 H       1  UNL1        0.0618
     31 H           7.2489    0.8620   -1.4465 H       1  UNL1        0.0629
     32 H           1.7101    1.5470    2.1302 H       1  UNL1        0.0472
     33 H           2.1212    0.0433    1.2711 H       1  UNL1        0.0472
     34 H           1.8757    3.5345    0.9046 H       1  UNL1        0.0818
     35 H           1.8546    3.5556   -0.8753 H       1  UNL1        0.0818
     36 H          -0.1932    3.5000    2.1314 H       1  UNL1        0.0814
     37 H          -1.7447    3.4946    1.2587 H       1  UNL1        0.0814
     38 H          -1.7498    1.2342    1.2815 H       1  UNL1        0.0320
     39 H          -0.1956    1.2400    2.1537 H       1  UNL1        0.0320
     40 H           0.0021   -0.0041    0.0020 H       1  UNL1        0.0309
     41 H          -0.2365    1.2630   -2.1321 H       1  UNL1        0.0320
     42 H          -1.7738    1.2477   -1.2304 H       1  UNL1        0.0320
     43 H          -1.7737    3.5228   -1.1429 H       1  UNL1        0.0814
     44 H          -0.2438    3.5501   -2.0526 H       1  UNL1        0.0814
     45 N          -0.0380    3.6292    0.0386 N.4     1  UNL1        0.2355
     46 H          -0.0480    4.6559    0.0509 H       1  UNL1        0.2033
@<TRIPOS>UNITY_ATOM_ATTR
45 1
charge 1
@<TRIPOS>BOND
     1     1     6   ar
     2     1     2   ar
     3     1    24    1
     4     2     3   ar
     5     2    25    1
     6     3     4   ar
     7     3    26    1
     8     4    14    1
     9     4     5   ar
    10     5     6   ar
    11     5     7    1
    12     6    27    1
    13     7     8    1
    14     7    15    1
    15     8    13   ar
    16     8     9   ar
    17     9    10   ar
    18     9    28    1
    19    10    11   ar
    20    10    29    1
    21    11    12   ar
    22    11    30    1
    23    12    13   ar
    24    12    31    1
    25    13    14    1
    26    15    16    1
    27    15    32    1
    28    15    33    1
    29    16    17    1
    30    16    21    1
    31    16    18    1
    32    18    34    1
    33    18    35    1
    34    18    45    1
    35    19    20    1
    36    19    36    1
    37    19    37    1
    38    19    45    1
    39    20    21    1
    40    20    38    1
    41    20    39    1
    42    21    22    1
    43    21    40    1
    44    22    23    1
    45    22    41    1
    46    22    42    1
    47    23    43    1
    48    23    44    1
    49    23    45    1
    50    45    46    1
