@<TRIPOS>MOLECULE
ZINC01481868
 34 35 0 0 0
SMALL
GASTEIGER

@<TRIPOS>ATOM
      1 C          -2.1310    4.0578    1.1971 C.3     1  UNL1       -0.0542
      2 C          -0.8875    3.3110    0.7102 C.3     1  UNL1        0.0136
      3 C          -0.8693    1.8584    1.2766 C.3     1  UNL1       -0.0300
      4 H          -0.5113    1.7390    2.2992 H       1  UNL1        0.0308
      5 C          -2.3005    1.3079    0.9830 C.3     1  UNL1       -0.0491
      6 C          -2.3438    1.1284   -0.5517 C.3     1  UNL1       -0.0445
      7 C          -0.9365    1.5871   -1.0421 C.3     1  UNL1        0.0054
      8 H          -0.6367    1.2328   -2.0284 H       1  UNL1        0.0359
      9 C          -0.0440    1.1229    0.1625 C.3     1  UNL1       -0.0413
     10 C          -0.9320    3.1313   -0.8259 C.3     1  UNL1       -0.0066
     11 C           0.3063    3.7567   -1.4712 C.3     1  UNL1       -0.0180
     12 C          -2.2568    3.4832   -2.8218 C.3     1  UNL1       -0.0443
     13 C           0.3814    4.0600    1.1221 C.3     1  UNL1       -0.0542
     14 H          -2.1836    4.0056    2.2846 H       1  UNL1        0.0237
     15 H          -2.0735    5.1009    0.8858 H       1  UNL1        0.0237
     16 H          -3.0217    3.5991    0.7677 H       1  UNL1        0.0237
     17 H          -3.0566    2.0249    1.3032 H       1  UNL1        0.0268
     18 H          -2.4504    0.3505    1.4820 H       1  UNL1        0.0268
     19 H          -3.1211    1.7570   -0.9861 H       1  UNL1        0.0270
     20 H          -2.5129    0.0823   -0.8073 H       1  UNL1        0.0270
     21 H          -0.0596    0.0405    0.2896 H       1  UNL1        0.0273
     22 H           0.9740    1.5054    0.0883 H       1  UNL1        0.0273
     23 H           0.2898    3.5703   -2.5450 H       1  UNL1        0.0287
     24 H           0.3074    4.8314   -1.2890 H       1  UNL1        0.0287
     25 H           1.2038    3.3140   -1.0393 H       1  UNL1        0.0287
     26 H          -1.3957    3.9213   -3.3263 H       1  UNL1        0.0777
     27 H          -2.2786    2.4092   -3.0068 H       1  UNL1        0.0777
     28 H          -3.1714    3.9364   -3.2043 H       1  UNL1        0.0777
     29 H           1.2558    3.5237    0.7534 H       1  UNL1        0.0237
     30 H           0.3650    5.0637    0.6972 H       1  UNL1        0.0237
     31 H           0.4275    4.1264    2.2091 H       1  UNL1        0.0237
     32 N          -2.1626    3.7346   -1.3714 N.4     1  UNL1        0.2295
     33 H          -2.1464    4.7474   -1.2035 H       1  UNL1        0.2016
     34 H          -2.9782    3.3230   -0.9026 H       1  UNL1        0.2016
@<TRIPOS>UNITY_ATOM_ATTR
32 1
charge 1
@<TRIPOS>BOND
     1     1     2    1
     2     1    14    1
     3     1    15    1
     4     1    16    1
     5     2    10    1
     6     2     3    1
     7     2    13    1
     8     3     4    1
     9     3     9    1
    10     3     5    1
    11     5     6    1
    12     5    17    1
    13     5    18    1
    14     6     7    1
    15     6    19    1
    16     6    20    1
    17     7     8    1
    18     7     9    1
    19     7    10    1
    20     9    21    1
    21     9    22    1
    22    10    11    1
    23    10    32    1
    24    11    23    1
    25    11    24    1
    26    11    25    1
    27    12    26    1
    28    12    27    1
    29    12    28    1
    30    12    32    1
    31    13    29    1
    32    13    30    1
    33    13    31    1
    34    32    33    1
    35    32    34    1
