@<TRIPOS>MOLECULE
ZINC00057519
 42 43 0 0 0
SMALL
GASTEIGER

@<TRIPOS>ATOM
      1 C          10.0526    2.1930    4.6432 C.3     1  UNL1       -0.0397
      2 C           8.8044    1.4450    4.2513 C.ar    1  UNL1       -0.0504
      3 C           8.4263    0.3179    4.9600 C.ar    1  UNL1       -0.0582
      4 C           7.2851   -0.3715    4.6082 C.ar    1  UNL1       -0.0510
      5 C           6.5094    0.0707    3.5319 C.ar    1  UNL1        0.0179
      6 C           6.9016    1.2069    2.8169 C.ar    1  UNL1       -0.0510
      7 C           8.0421    1.8889    3.1849 C.ar    1  UNL1       -0.0582
      8 C           5.2899   -0.6592    3.1498 C.2     1  UNL1        0.1710
      9 O           4.9555   -1.6467    3.7688 O.2     1  UNL1       -0.2916
     10 C           4.4569   -0.1792    1.9893 C.3     1  UNL1        0.0592
     11 H           4.5404    0.8139    1.9073 H       1  UNL1        0.0431
     12 C           4.9488   -0.8406    0.7004 C.3     1  UNL1       -0.0504
     13 C           2.9914   -0.5500    2.2256 C.3     1  UNL1       -0.0221
     14 C           0.7933   -0.5053    1.2123 C.3     1  UNL1       -0.0319
     15 C           0.0021   -0.0041    0.0020 C.3     1  UNL1       -0.0123
     16 C          -0.0187    1.5270    0.0104 C.3     1  UNL1       -0.0434
     17 C           1.4207    2.0492   -0.0005 C.3     1  UNL1       -0.0123
     18 C           2.1708    1.4884    1.2098 C.3     1  UNL1       -0.0319
     19 H          10.9055    1.7868    4.0993 H       1  UNL1        0.0278
     20 H           9.9353    3.2488    4.3989 H       1  UNL1        0.0278
     21 H          10.2199    2.0844    5.7148 H       1  UNL1        0.0278
     22 H           9.0264   -0.0224    5.7909 H       1  UNL1        0.0620
     23 H           6.9910   -1.2504    5.1626 H       1  UNL1        0.0625
     24 H           6.3103    1.5517    1.9815 H       1  UNL1        0.0625
     25 H           8.3437    2.7693    2.6368 H       1  UNL1        0.0620
     26 H           4.8578   -1.9231    0.7898 H       1  UNL1        0.0238
     27 H           4.3463   -0.4934   -0.1390 H       1  UNL1        0.0238
     28 H           5.9928   -0.5764    0.5320 H       1  UNL1        0.0238
     29 H           2.6667   -0.1529    3.1874 H       1  UNL1        0.0821
     30 H           2.8868   -1.6350    2.2265 H       1  UNL1        0.0821
     31 H           0.3110   -0.1640    2.1282 H       1  UNL1        0.0814
     32 H           0.8222   -1.5949    1.2014 H       1  UNL1        0.0814
     33 H          -1.0190   -0.3821    0.0528 H       1  UNL1        0.0317
     34 H           0.4761   -0.3565   -0.9140 H       1  UNL1        0.0317
     35 H          -0.5443    1.8890   -0.8732 H       1  UNL1        0.0269
     36 H          -0.5272    1.8794    0.9078 H       1  UNL1        0.0269
     37 H           1.9170    1.7290   -0.9166 H       1  UNL1        0.0317
     38 H           1.4131    3.1380    0.0485 H       1  UNL1        0.0317
     39 H           1.6820    1.8203    2.1258 H       1  UNL1        0.0814
     40 H           3.2001    1.8469    1.1972 H       1  UNL1        0.0814
     41 N           2.1758    0.0123    1.1295 N.4     1  UNL1        0.2357
     42 H           2.5841   -0.2709    0.2310 H       1  UNL1        0.2033
@<TRIPOS>UNITY_ATOM_ATTR
41 1
charge 1
@<TRIPOS>BOND
     1     1     2    1
     2     1    19    1
     3     1    20    1
     4     1    21    1
     5     2     7   ar
     6     2     3   ar
     7     3     4   ar
     8     3    22    1
     9     4     5   ar
    10     4    23    1
    11     5     6   ar
    12     5     8    1
    13     6     7   ar
    14     6    24    1
    15     7    25    1
    16     8     9    2
    17     8    10    1
    18    10    11    1
    19    10    12    1
    20    10    13    1
    21    12    26    1
    22    12    27    1
    23    12    28    1
    24    13    29    1
    25    13    30    1
    26    13    41    1
    27    14    15    1
    28    14    31    1
    29    14    32    1
    30    14    41    1
    31    15    16    1
    32    15    33    1
    33    15    34    1
    34    16    17    1
    35    16    35    1
    36    16    36    1
    37    17    18    1
    38    17    37    1
    39    17    38    1
    40    18    39    1
    41    18    40    1
    42    18    41    1
    43    41    42    1
