@<TRIPOS>MOLECULE
ZINC03831330
 79 80 0 0 0
SMALL
GASTEIGER

@<TRIPOS>ATOM
      1 C           1.7649    8.5648    0.0002 C.3     1  UNL1       -0.0357
      2 C           1.5635    7.1237   -0.3920 C.2     1  UNL1        0.0039
      3 C           2.6151    6.2944   -0.4232 C.2     1  UNL1        0.0102
      4 C           2.4525    4.8782   -0.8032 C.2     1  UNL1        0.1905
      5 O           3.4160    4.1386   -0.8262 O.2     1  UNL1       -0.2869
      6 C           1.1122    4.3621   -1.1554 C.ar    1  UNL1        0.0327
      7 C           0.9321    3.0325   -1.5173 C.ar    1  UNL1       -0.0502
      8 C          -0.3348    2.5735   -1.8436 C.ar    1  UNL1       -0.0610
      9 C          -1.4184    3.4301   -1.8168 C.ar    1  UNL1       -0.0610
     10 C          -1.2556    4.7578   -1.4523 C.ar    1  UNL1       -0.0502
     11 C           0.0082    5.2328   -1.1226 C.ar    1  UNL1        0.0327
     12 C           0.2110    6.6458   -0.7366 C.2     1  UNL1        0.1900
     13 O          -0.7326    7.4102   -0.7031 O.2     1  UNL1       -0.2870
     14 C           3.9832    6.8153   -0.0652 C.3     1  UNL1       -0.0052
     15 C           4.2610    6.5387    1.3899 C.2     1  UNL1       -0.0806
     16 C           5.3398    5.8818    1.7375 C.2     1  UNL1       -0.0762
     17 C           6.2330    5.2865    0.6797 C.3     1  UNL1       -0.0438
     18 C           5.6877    5.7215    3.1950 C.3     1  UNL1       -0.0320
     19 C           5.1503    4.3821    3.7031 C.3     1  UNL1       -0.0491
     20 C           5.5034    4.2193    5.1829 C.3     1  UNL1       -0.0502
     21 C           4.9660    2.8799    5.6911 C.3     1  UNL1       -0.0439
     22 H           5.3453    2.0742    5.0625 H       1  UNL1        0.0298
     23 C           3.4370    2.8910    5.6387 C.3     1  UNL1       -0.0624
     24 C           5.4253    2.6605    7.1339 C.3     1  UNL1       -0.0505
     25 C           4.9943    1.2685    7.6002 C.3     1  UNL1       -0.0526
     26 C           5.4536    1.0491    9.0431 C.3     1  UNL1       -0.0505
     27 C           5.0226   -0.3429    9.5094 C.3     1  UNL1       -0.0439
     28 H           3.9468   -0.4545    9.3740 H       1  UNL1        0.0298
     29 C           5.7532   -1.4055    8.6860 C.3     1  UNL1       -0.0624
     30 C           5.3710   -0.5157   10.9892 C.3     1  UNL1       -0.0505
     31 C           4.8293   -1.8570   11.4875 C.3     1  UNL1       -0.0526
     32 C           5.1777   -2.0297   12.9672 C.3     1  UNL1       -0.0507
     33 C           4.6360   -3.3711   13.4655 C.3     1  UNL1       -0.0467
     34 C           5.0906   -3.6004   14.9083 C.3     1  UNL1       -0.0627
     35 C           3.1071   -3.3565   13.4087 C.3     1  UNL1       -0.0627
     36 H           0.8084    9.0866   -0.0297 H       1  UNL1        0.0279
     37 H           2.1737    8.6130    1.0095 H       1  UNL1        0.0279
     38 H           2.4584    9.0371   -0.6956 H       1  UNL1        0.0279
     39 H           1.7760    2.3591   -1.5439 H       1  UNL1        0.0625
     40 H          -0.4748    1.5402   -2.1248 H       1  UNL1        0.0618
     41 H          -2.3996    3.0620   -2.0777 H       1  UNL1        0.0618
     42 H          -2.1071    5.4216   -1.4289 H       1  UNL1        0.0625
     43 H           4.7336    6.3176   -0.6793 H       1  UNL1        0.0357
     44 H           4.0212    7.8898   -0.2445 H       1  UNL1        0.0357
     45 H           3.5708    6.8821    2.1463 H       1  UNL1        0.0575
     46 H           6.9283    6.0459    0.3218 H       1  UNL1        0.0274
     47 H           6.7924    4.4527    1.1037 H       1  UNL1        0.0274
     48 H           5.6244    4.9305   -0.1515 H       1  UNL1        0.0274
     49 H           6.7707    5.7475    3.3150 H       1  UNL1        0.0310
     50 H           5.2390    6.5336    3.7671 H       1  UNL1        0.0310
     51 H           4.0672    4.3561    3.5831 H       1  UNL1        0.0268
     52 H           5.5989    3.5700    3.1311 H       1  UNL1        0.0268
     53 H           6.5865    4.2453    5.3030 H       1  UNL1        0.0268
     54 H           5.0548    5.0314    5.7550 H       1  UNL1        0.0268
     55 H           3.0577    3.6967    6.2672 H       1  UNL1        0.0232
     56 H           3.1098    3.0473    4.6108 H       1  UNL1        0.0232
     57 H           3.0541    1.9368    6.0007 H       1  UNL1        0.0232
     58 H           6.5111    2.7410    7.1858 H       1  UNL1        0.0268
     59 H           4.9738    3.4153    7.7777 H       1  UNL1        0.0268
     60 H           3.9085    1.1880    7.5484 H       1  UNL1        0.0265
     61 H           5.4458    0.5137    6.9564 H       1  UNL1        0.0265
     62 H           6.5394    1.1296    9.0950 H       1  UNL1        0.0268
     63 H           5.0021    1.8039    9.6869 H       1  UNL1        0.0268
     64 H           6.8289   -1.2940    8.8214 H       1  UNL1        0.0232
     65 H           5.4461   -2.3972    9.0182 H       1  UNL1        0.0232
     66 H           5.5049   -1.2825    7.6318 H       1  UNL1        0.0232
     67 H           6.4537   -0.4926   11.1126 H       1  UNL1        0.0268
     68 H           4.9224    0.2939   11.5650 H       1  UNL1        0.0268
     69 H           3.7465   -1.8800   11.3640 H       1  UNL1        0.0265
     70 H           5.2779   -2.6665   10.9117 H       1  UNL1        0.0265
     71 H           6.2605   -2.0067   13.0906 H       1  UNL1        0.0268
     72 H           4.7291   -1.2202   13.5430 H       1  UNL1        0.0268
     73 H           5.0155   -4.1737   12.8331 H       1  UNL1        0.0295
     74 H           4.7112   -2.7978   15.5407 H       1  UNL1        0.0232
     75 H           4.7047   -4.5560   15.2633 H       1  UNL1        0.0232
     76 H           6.1798   -3.6108   14.9488 H       1  UNL1        0.0232
     77 H           2.7833   -3.1931   12.3808 H       1  UNL1        0.0232
     78 H           2.7212   -4.3121   13.7637 H       1  UNL1        0.0232
     79 H           2.7277   -2.5539   14.0411 H       1  UNL1        0.0232
@<TRIPOS>BOND
     1     1     2    1
     2     1    36    1
     3     1    37    1
     4     1    38    1
     5     2    12    1
     6     2     3    2
     7     3     4    1
     8     3    14    1
     9     4     5    2
    10     4     6    1
    11     6    11   ar
    12     6     7   ar
    13     7     8   ar
    14     7    39    1
    15     8     9   ar
    16     8    40    1
    17     9    10   ar
    18     9    41    1
    19    10    11   ar
    20    10    42    1
    21    11    12    1
    22    12    13    2
    23    14    15    1
    24    14    43    1
    25    14    44    1
    26    15    16    2
    27    15    45    1
    28    16    17    1
    29    16    18    1
    30    17    46    1
    31    17    47    1
    32    17    48    1
    33    18    19    1
    34    18    49    1
    35    18    50    1
    36    19    20    1
    37    19    51    1
    38    19    52    1
    39    20    21    1
    40    20    53    1
    41    20    54    1
    42    21    22    1
    43    21    23    1
    44    21    24    1
    45    23    55    1
    46    23    56    1
    47    23    57    1
    48    24    25    1
    49    24    58    1
    50    24    59    1
    51    25    26    1
    52    25    60    1
    53    25    61    1
    54    26    27    1
    55    26    62    1
    56    26    63    1
    57    27    28    1
    58    27    29    1
    59    27    30    1
    60    29    64    1
    61    29    65    1
    62    29    66    1
    63    30    31    1
    64    30    67    1
    65    30    68    1
    66    31    32    1
    67    31    69    1
    68    31    70    1
    69    32    33    1
    70    32    71    1
    71    32    72    1
    72    33    34    1
    73    33    35    1
    74    33    73    1
    75    34    74    1
    76    34    75    1
    77    34    76    1
    78    35    77    1
    79    35    78    1
    80    35    79    1
