@<TRIPOS>MOLECULE
ZINC01530633
 40 39 0 0 0
SMALL
GASTEIGER

@<TRIPOS>ATOM
      1 C          -1.5156    3.6610    2.0104 C.3     1  UNL1       -0.0601
      2 C          -1.0389    3.0645    0.6845 C.3     1  UNL1       -0.0104
      3 CA         -0.9079    1.5467    0.8259 C.3     1  UNL1        0.0009
      4 HA         -0.2540    1.3152    1.6667 H       1  UNL1        0.0873
      5 C          -0.3135    0.9644   -0.4580 C.3     1  UNL1        0.0868
      6 O          -1.1080    1.3661   -1.5757 O.3     1  UNL1       -0.3895
      7 C          -2.1249   -0.3222    1.7686 C.3     1  UNL1        0.0077
      8 C          -3.5231   -0.9006    1.9950 C.3     1  UNL1        0.0077
      9 CA         -4.7277   -2.8278    2.8301 C.3     1  UNL1        0.0009
     10 HA         -5.4972   -2.0643    2.9449 H       1  UNL1        0.0873
     11 C          -4.7300   -3.7427    4.0564 C.3     1  UNL1       -0.0104
     12 C          -4.5873   -2.8974    5.3237 C.3     1  UNL1       -0.0601
     13 C          -5.0139   -3.6556    1.5756 C.3     1  UNL1        0.0868
     14 O          -4.0737   -4.7282    1.4880 O.3     1  UNL1       -0.3895
     15 H          -0.7932    3.4300    2.7933 H       1  UNL1        0.0232
     16 H          -1.6089    4.7423    1.9097 H       1  UNL1        0.0232
     17 H          -2.4842    3.2356    2.2728 H       1  UNL1        0.0232
     18 H          -0.0702    3.4899    0.4221 H       1  UNL1        0.0318
     19 H          -1.7613    3.2955   -0.0983 H       1  UNL1        0.0318
     20 H1         -0.3024   -0.1236   -0.3923 H       1  UNL1        0.0614
     21 H2          0.7050    1.3310   -0.5857 H       1  UNL1        0.0614
     22 H          -0.7890    1.0322   -2.4253 H       1  UNL1        0.2097
     23 H          -1.5364   -1.0180    1.1704 H       1  UNL1        0.0867
     24 H          -1.6360   -0.1664    2.7303 H       1  UNL1        0.0867
     25 H          -4.1116   -0.2048    2.5932 H       1  UNL1        0.0867
     26 H          -4.0120   -1.0564    1.0333 H       1  UNL1        0.0867
     27 H          -5.6672   -4.2980    4.0937 H       1  UNL1        0.0318
     28 H          -3.8961   -4.4415    3.9899 H       1  UNL1        0.0318
     29 H          -3.6075   -2.4198    5.3334 H       1  UNL1        0.0232
     30 H          -5.3642   -2.1330    5.3399 H       1  UNL1        0.0232
     31 H          -4.6885   -3.5370    6.2004 H       1  UNL1        0.0232
     32 H1         -6.0240   -4.0615    1.6307 H       1  UNL1        0.0614
     33 H2         -4.9248   -3.0214    0.6936 H       1  UNL1        0.0614
     34 H          -4.1957   -5.2960    0.7148 H       1  UNL1        0.2097
     35 N          -2.2434    0.9651    1.0582 N.4     1  UNL1        0.2345
     36 H1         -2.7079    0.8121    0.1553 H       1  UNL1        0.2019
     37 H2         -2.8018    1.6144    1.6246 H       1  UNL1        0.2019
     38 N          -3.4046   -2.1875    2.7061 N.4     1  UNL1        0.2345
     39 H1         -3.0192   -2.0223    3.6433 H       1  UNL1        0.2019
     40 H2         -2.7761   -2.8075    2.1819 H       1  UNL1        0.2019
@<TRIPOS>UNITY_ATOM_ATTR
35 1
charge 1
38 1
charge 1
@<TRIPOS>BOND
     1     1     2    1
     2     1    15    1
     3     1    16    1
     4     1    17    1
     5     2     3    1
     6     2    18    1
     7     2    19    1
     8     3     4    1
     9     3     5    1
    10     3    35    1
    11     5     6    1
    12     5    20    1
    13     5    21    1
    14     6    22    1
    15     7     8    1
    16     7    23    1
    17     7    24    1
    18     7    35    1
    19     8    25    1
    20     8    26    1
    21     8    38    1
    22     9    10    1
    23     9    11    1
    24     9    13    1
    25     9    38    1
    26    11    12    1
    27    11    27    1
    28    11    28    1
    29    12    29    1
    30    12    30    1
    31    12    31    1
    32    13    14    1
    33    13    32    1
    34    13    33    1
    35    14    34    1
    36    35    36    1
    37    35    37    1
    38    38    39    1
    39    38    40    1
