@<TRIPOS>MOLECULE
ZINC03978002
 44 47 0 0 0
SMALL
GASTEIGER

@<TRIPOS>ATOM
      1 C          -0.8155    3.1356   -1.2228 C.3     1  UNL1       -0.0569
      2 C          -0.5701    1.6296   -1.3351 C.3     1  UNL1       -0.0030
      3 C          -1.8793    0.9116   -1.6006 C.3     1  UNL1       -0.0445
      4 C          -2.8598    1.3325   -0.4939 C.3     1  UNL1       -0.0454
      5 C          -2.3107    1.0261    0.8930 C.3     1  UNL1       -0.0125
      6 H          -2.9718    1.4919    1.6238 H       1  UNL1        0.0352
      7 C          -2.3196   -0.4562    1.1449 C.ar    1  UNL1       -0.0406
      8 C          -3.3923   -1.1903    0.6525 C.ar    1  UNL1       -0.0546
      9 C          -3.4652   -2.5512    0.8563 C.ar    1  UNL1       -0.0199
     10 C          -2.4590   -3.1970    1.5602 C.ar    1  UNL1        0.1171
     11 C          -1.3884   -2.4672    2.0476 C.ar    1  UNL1       -0.0167
     12 C          -1.3161   -1.0972    1.8377 C.ar    1  UNL1       -0.0405
     13 C          -0.1164   -0.3666    2.3822 C.3     1  UNL1       -0.0270
     14 C          -0.3969    1.1320    2.4722 C.3     1  UNL1       -0.0454
     15 C          -0.9074    1.5962    1.1233 C.3     1  UNL1       -0.0305
     16 H          -0.9603    2.6845    1.0929 H       1  UNL1        0.0310
     17 C          -0.0127    1.0858    0.0080 C.3     1  UNL1       -0.0298
     18 H           0.0021   -0.0041    0.0020 H       1  UNL1        0.0310
     19 C           1.4166    1.6401   -0.0027 C.3     1  UNL1       -0.0470
     20 C           1.8618    1.4255   -1.4750 C.3     1  UNL1       -0.0261
     21 C           0.5644    1.3630   -2.3190 C.3     1  UNL1        0.0609
     22 H           0.4521    0.3754   -2.7664 H       1  UNL1        0.0599
     23 O           0.5854    2.3682   -3.3345 O.3     1  UNL1       -0.3912
     24 O          -2.5238   -4.5382    1.7694 O.3     1  UNL1       -0.5068
     25 H           0.1224    3.6403   -0.9911 H       1  UNL1        0.0236
     26 H          -1.2065    3.5115   -2.1682 H       1  UNL1        0.0236
     27 H          -1.5373    3.3278   -0.4289 H       1  UNL1        0.0236
     28 H          -2.2717    1.2031   -2.5749 H       1  UNL1        0.0272
     29 H          -1.7242   -0.1668   -1.5706 H       1  UNL1        0.0272
     30 H          -3.0469    2.4034   -0.5733 H       1  UNL1        0.0271
     31 H          -3.7995    0.7970   -0.6291 H       1  UNL1        0.0271
     32 H          -4.1764   -0.6891    0.1044 H       1  UNL1        0.0622
     33 H          -4.3028   -3.1130    0.4699 H       1  UNL1        0.0654
     34 H          -0.6035   -2.9678    2.5951 H       1  UNL1        0.0657
     35 H           0.1171   -0.7490    3.3758 H       1  UNL1        0.0313
     36 H           0.7357   -0.5334    1.7233 H       1  UNL1        0.0313
     37 H          -1.1512    1.3182    3.2366 H       1  UNL1        0.0271
     38 H           0.5211    1.6619    2.7266 H       1  UNL1        0.0271
     39 H           1.4210    2.7002    0.2510 H       1  UNL1        0.0269
     40 H           2.0531    1.0787    0.6813 H       1  UNL1        0.0269
     41 H           2.4821    2.2594   -1.8036 H       1  UNL1        0.0290
     42 H           2.4140    0.4902   -1.5663 H       1  UNL1        0.0290
     43 H           1.3112    2.2736   -3.9665 H       1  UNL1        0.2098
     44 H          -2.1041   -5.0653    1.0758 H       1  UNL1        0.2921
@<TRIPOS>BOND
     1     1     2    1
     2     1    25    1
     3     1    26    1
     4     1    27    1
     5     2    17    1
     6     2    21    1
     7     2     3    1
     8     3     4    1
     9     3    28    1
    10     3    29    1
    11     4     5    1
    12     4    30    1
    13     4    31    1
    14     5     6    1
    15     5    15    1
    16     5     7    1
    17     7    12   ar
    18     7     8   ar
    19     8     9   ar
    20     8    32    1
    21     9    10   ar
    22     9    33    1
    23    10    11   ar
    24    10    24    1
    25    11    12   ar
    26    11    34    1
    27    12    13    1
    28    13    14    1
    29    13    35    1
    30    13    36    1
    31    14    15    1
    32    14    37    1
    33    14    38    1
    34    15    16    1
    35    15    17    1
    36    17    18    1
    37    17    19    1
    38    19    20    1
    39    19    39    1
    40    19    40    1
    41    20    21    1
    42    20    41    1
    43    20    42    1
    44    21    22    1
    45    21    23    1
    46    23    43    1
    47    24    44    1
