@<TRIPOS>MOLECULE
ZINC08551667
 51 54 0 0 0
SMALL
GASTEIGER

@<TRIPOS>ATOM
      1 C          -0.0978    3.4258   -0.8685 C.3     1  UNL1       -0.0569
      2 C           1.1578    3.0886   -0.0625 C.3     1  UNL1       -0.0030
      3 C           1.1149    3.8004    1.2678 C.3     1  UNL1       -0.0447
      4 C           1.3130    5.3043    1.1167 C.3     1  UNL1       -0.0486
      5 C           2.4156    5.7506    0.1683 C.3     1  UNL1       -0.0285
      6 H           2.1533    6.8014   -0.1239 H       1  UNL1        0.0312
      7 C           2.3935    4.9540   -1.1347 C.3     1  UNL1       -0.0306
      8 H           1.4451    5.1863   -1.6505 H       1  UNL1        0.0310
      9 C           2.4519    3.4873   -0.8120 C.3     1  UNL1       -0.0298
     10 H           3.3277    3.2695   -0.1871 H       1  UNL1        0.0310
     11 C           2.4428    2.5013   -1.9872 C.3     1  UNL1       -0.0470
     12 C           2.0586    1.1677   -1.2850 C.3     1  UNL1       -0.0261
     13 C           1.2839    1.5606   -0.0018 C.3     1  UNL1        0.0609
     14 H           1.8478    1.2717    0.8826 H       1  UNL1        0.0599
     15 O          -0.0110    0.9628    0.0073 O.3     1  UNL1       -0.3912
     16 C           3.5015    5.3912   -2.0808 C.3     1  UNL1       -0.0311
     17 C           4.8193    5.4622   -1.3757 C.2     1  UNL1       -0.0839
     18 C           4.9315    5.6832   -0.1031 C.2     1  UNL1       -0.0648
     19 C           3.7680    5.8526    0.8324 C.3     1  UNL1       -0.0078
     20 C           3.9083    7.2321    1.5006 C.3     1  UNL1       -0.0413
     21 C           5.2765    7.3796    2.1568 C.3     1  UNL1       -0.0258
     22 C           6.4046    7.2131    1.1415 C.3     1  UNL1        0.0590
     23 H           7.3667    7.3170    1.6476 H       1  UNL1        0.0596
     24 C           6.3260    5.8312    0.4842 C.3     1  UNL1       -0.0051
     25 O           6.2935    8.2205    0.1327 O.3     1  UNL1       -0.3915
     26 C           3.9098    4.8052    1.9350 C.3     1  UNL1       -0.0556
     27 H          -0.9736    3.0167   -0.3649 H       1  UNL1        0.0236
     28 H          -0.1979    4.5082   -0.9495 H       1  UNL1        0.0236
     29 H          -0.0167    2.9929   -1.8656 H       1  UNL1        0.0236
     30 H           0.1169    3.6249    1.7149 H       1  UNL1        0.0271
     31 H           1.8358    3.3576    1.9526 H       1  UNL1        0.0271
     32 H           0.3632    5.7397    0.7497 H       1  UNL1        0.0268
     33 H           1.4653    5.7586    2.1029 H       1  UNL1        0.0268
     34 H           3.4421    2.4211   -2.4221 H       1  UNL1        0.0269
     35 H           1.7204    2.7778   -2.7449 H       1  UNL1        0.0269
     36 H           2.9628    0.6190   -1.0172 H       1  UNL1        0.0290
     37 H           1.4345    0.5630   -1.9383 H       1  UNL1        0.0290
     38 H           0.0021   -0.0041    0.0020 H       1  UNL1        0.2098
     39 H           3.2551    6.3767   -2.4869 H       1  UNL1        0.0310
     40 H           3.5695    4.6819   -2.9092 H       1  UNL1        0.0310
     41 H           5.7226    5.3217   -1.9558 H       1  UNL1        0.0572
     42 H           3.7752    8.0081    0.7451 H       1  UNL1        0.0274
     43 H           3.1273    7.3388    2.2566 H       1  UNL1        0.0274
     44 H           5.3483    8.3880    2.5909 H       1  UNL1        0.0290
     45 H           5.3984    6.6689    2.9717 H       1  UNL1        0.0290
     46 H           7.0661    5.7697   -0.3174 H       1  UNL1        0.0335
     47 H           6.5208    5.0539    1.2171 H       1  UNL1        0.0335
     48 H           6.9801    8.1742   -0.5467 H       1  UNL1        0.2098
     49 H           3.8030    3.8090    1.5057 H       1  UNL1        0.0238
     50 H           4.8916    4.8974    2.3995 H       1  UNL1        0.0238
     51 H           3.1361    4.9618    2.6866 H       1  UNL1        0.0238
@<TRIPOS>BOND
     1     1     2    1
     2     1    27    1
     3     1    28    1
     4     1    29    1
     5     2     9    1
     6     2    13    1
     7     2     3    1
     8     3     4    1
     9     3    30    1
    10     3    31    1
    11     4     5    1
    12     4    32    1
    13     4    33    1
    14     5     6    1
    15     5    19    1
    16     5     7    1
    17     7     8    1
    18     7     9    1
    19     7    16    1
    20     9    10    1
    21     9    11    1
    22    11    12    1
    23    11    34    1
    24    11    35    1
    25    12    13    1
    26    12    36    1
    27    12    37    1
    28    13    14    1
    29    13    15    1
    30    15    38    1
    31    16    17    1
    32    16    39    1
    33    16    40    1
    34    17    18    2
    35    17    41    1
    36    18    24    1
    37    18    19    1
    38    19    20    1
    39    19    26    1
    40    20    21    1
    41    20    42    1
    42    20    43    1
    43    21    22    1
    44    21    44    1
    45    21    45    1
    46    22    23    1
    47    22    24    1
    48    22    25    1
    49    24    46    1
    50    24    47    1
    51    25    48    1
    52    26    49    1
    53    26    50    1
    54    26    51    1
