@<TRIPOS>MOLECULE
ZINC03977883
 55 58 0 0 0
SMALL
GASTEIGER

@<TRIPOS>ATOM
      1 C           1.3800    1.4218   -2.5060 C.3     1  UNL1       -0.0553
      2 C          -0.1017    1.0404   -2.4910 C.3     1  UNL1       -0.0032
      3 C          -0.2386   -0.4836   -2.5113 C.3     1  UNL1       -0.0363
      4 C           0.3722   -1.0172   -3.8113 C.3     1  UNL1        0.0107
      5 C          -0.3103   -0.3575   -4.9817 C.2     1  UNL1        0.1564
      6 O          -0.3851   -0.9439   -6.0428 O.2     1  UNL1       -0.2927
      7 C          -0.8609    0.9278   -4.8577 C.2     1  UNL1       -0.0155
      8 C          -0.7870    1.6302   -3.6979 C.2     1  UNL1       -0.0382
      9 C          -1.3872    2.9599   -3.6083 C.2     1  UNL1       -0.0616
     10 C          -1.3425    3.6615   -2.4781 C.2     1  UNL1       -0.0801
     11 C          -0.6903    3.1240   -1.2329 C.3     1  UNL1       -0.0156
     12 H           0.3591    3.4176   -1.2594 H       1  UNL1        0.0349
     13 C          -0.7615    1.5972   -1.2268 C.3     1  UNL1       -0.0251
     14 H          -1.8027    1.2776   -1.1841 H       1  UNL1        0.0315
     15 C          -0.0127    1.0858    0.0080 C.3     1  UNL1       -0.0483
     16 C          -0.7351    1.5820    1.2578 C.3     1  UNL1       -0.0444
     17 C          -0.7387    3.1112    1.3158 C.3     1  UNL1        0.0001
     18 C          -1.3029    3.7107    0.0154 C.3     1  UNL1       -0.0264
     19 H          -1.1347    4.7875    0.0264 H       1  UNL1        0.0313
     20 C          -2.8143    3.4332    0.1188 C.3     1  UNL1       -0.0465
     21 C          -3.1263    3.6900    1.6111 C.3     1  UNL1       -0.0232
     22 C          -1.8002    3.5142    2.3741 C.3     1  UNL1        0.0721
     23 C          -1.9405    2.4104    3.4244 C.3     1  UNL1       -0.0184
     24 C          -3.1021    2.7439    4.3626 C.3     1  UNL1       -0.0106
     25 C          -3.2404    1.6568    5.3971 C.2     1  UNL1        0.0418
     26 O          -2.4871    0.7122    5.3851 O.co2   1  UNL1       -0.5498
     27 O          -1.4280    4.7432    3.0011 O.3     1  UNL1       -0.3880
     28 C           0.6414    3.6815    1.6492 C.3     1  UNL1       -0.0567
     29 H           1.8714    1.0049   -1.6269 H       1  UNL1        0.0238
     30 H           1.8483    1.0248   -3.4066 H       1  UNL1        0.0238
     31 H           1.4758    2.5076   -2.4951 H       1  UNL1        0.0238
     32 H           0.2894   -0.9092   -1.6579 H       1  UNL1        0.0278
     33 H          -1.2928   -0.7564   -2.4617 H       1  UNL1        0.0278
     34 H           1.3503   -0.8099   -3.8297 H       1  UNL1        0.0345
     35 H           0.2280   -2.0963   -3.8659 H       1  UNL1        0.0345
     36 H          -1.3525    1.3735   -5.7098 H       1  UNL1        0.0655
     37 H          -1.8761    3.3805   -4.4746 H       1  UNL1        0.0617
     38 H          -1.7991    4.6397   -2.4456 H       1  UNL1        0.0575
     39 H           0.0021   -0.0041    0.0020 H       1  UNL1        0.0269
     40 H           1.0088    1.4659    0.0003 H       1  UNL1        0.0269
     41 H          -1.7647    1.2247    1.2421 H       1  UNL1        0.0272
     42 H          -0.2334    1.1882    2.1417 H       1  UNL1        0.0272
     43 H          -3.3750    4.1206   -0.5145 H       1  UNL1        0.0269
     44 H          -3.0338    2.3991   -0.1469 H       1  UNL1        0.0269
     45 H          -3.5024    4.7043    1.7447 H       1  UNL1        0.0293
     46 H          -3.8612    2.9687    1.9684 H       1  UNL1        0.0293
     47 H          -2.1355    1.4596    2.9284 H       1  UNL1        0.0297
     48 H          -1.0179    2.3374    4.0002 H       1  UNL1        0.0297
     49 H          -2.9071    3.6948    4.8586 H       1  UNL1        0.0326
     50 H          -4.0248    2.8170    3.7868 H       1  UNL1        0.0326
     51 H          -2.0658    5.0600    3.6552 H       1  UNL1        0.2102
     52 H           0.5678    4.7619    1.7731 H       1  UNL1        0.0236
     53 H           1.0059    3.2338    2.5737 H       1  UNL1        0.0236
     54 H           1.3337    3.4551    0.8383 H       1  UNL1        0.0236
     55 O          -4.2003    1.7379    6.3317 O.co2   1  UNL1       -0.5498
@<TRIPOS>UNITY_ATOM_ATTR
55 1
charge -1
@<TRIPOS>BOND
     1     1     2    1
     2     1    29    1
     3     1    30    1
     4     1    31    1
     5     2     8    1
     6     2    13    1
     7     2     3    1
     8     3     4    1
     9     3    32    1
    10     3    33    1
    11     4     5    1
    12     4    34    1
    13     4    35    1
    14     5     6    2
    15     5     7    1
    16     7     8    2
    17     7    36    1
    18     8     9    1
    19     9    10    2
    20     9    37    1
    21    10    11    1
    22    10    38    1
    23    11    12    1
    24    11    18    1
    25    11    13    1
    26    13    14    1
    27    13    15    1
    28    15    16    1
    29    15    39    1
    30    15    40    1
    31    16    17    1
    32    16    41    1
    33    16    42    1
    34    17    22    1
    35    17    18    1
    36    17    28    1
    37    18    19    1
    38    18    20    1
    39    20    21    1
    40    20    43    1
    41    20    44    1
    42    21    22    1
    43    21    45    1
    44    21    46    1
    45    22    23    1
    46    22    27    1
    47    23    24    1
    48    23    47    1
    49    23    48    1
    50    24    25    1
    51    24    49    1
    52    24    50    1
    53    25    26   ar
    54    25    55   ar
    55    27    51    1
    56    28    52    1
    57    28    53    1
    58    28    54    1
