@<TRIPOS>MOLECULE
ZINC03831604
 98 103 0 0 0
SMALL
GASTEIGER

@<TRIPOS>ATOM
      1 C          -2.4474   -0.4254    5.5187 C.3     1  UNL1        0.0332
      2 C          -2.8980    0.1122    4.1849 C.2     1  UNL1        0.3044
      3 O          -2.1523    0.7987    3.5271 O.2     1  UNL1       -0.2512
      4 O          -4.1277   -0.1715    3.7276 O.3     1  UNL1       -0.4558
      5 C          -4.4944    0.3807    2.4337 C.3     1  UNL1        0.1455
      6 H          -3.9644    1.3218    2.2849 H       1  UNL1        0.0791
      7 C          -4.1083   -0.6072    1.3348 C.3     1  UNL1       -0.0070
      8 C          -4.5117   -0.0676   -0.0366 C.3     1  UNL1       -0.0316
      9 H          -4.2964   -0.8425   -0.7864 H       1  UNL1        0.0307
     10 C          -3.6668    1.1592   -0.3681 C.3     1  UNL1       -0.0493
     11 C          -4.0616    1.7433   -1.7356 C.3     1  UNL1       -0.0494
     12 C          -5.5314    2.1128   -1.6368 C.3     1  UNL1       -0.0341
     13 H          -5.6416    2.7060   -0.7085 H       1  UNL1        0.0306
     14 C          -6.3431    0.8211   -1.4438 C.3     1  UNL1       -0.0321
     15 H          -6.0217    0.0862   -2.1885 H       1  UNL1        0.0309
     16 C          -6.0155    0.2312   -0.0767 C.3     1  UNL1       -0.0208
     17 C          -6.4013    1.1951    1.0374 C.3     1  UNL1       -0.0003
     18 C          -6.0022    0.6341    2.4028 C.3     1  UNL1        0.0175
     19 H          -6.5358   -0.2915    2.6061 H       1  UNL1        0.0888
     20 C          -7.7989    1.7888    3.5424 C.3     1  UNL1       -0.0315
     21 C          -8.1239    2.7023    4.7265 C.3     1  UNL1       -0.0123
     22 C          -7.4416    4.0577    4.5214 C.3     1  UNL1       -0.0434
     23 C          -5.9330    3.8433    4.3713 C.3     1  UNL1       -0.0123
     24 C          -5.6715    2.8967    3.1975 C.3     1  UNL1       -0.0315
     25 C          -6.7887   -1.0873    0.0840 C.3     1  UNL1       -0.0589
     26 C          -7.8098    1.1402   -1.6865 C.3     1  UNL1       -0.0488
     27 C          -8.0163    1.3190   -3.2050 C.3     1  UNL1       -0.0435
     28 C          -6.8562    2.0832   -3.7975 C.3     1  UNL1        0.0136
     29 C          -6.1277    2.9277   -2.7332 C.3     1  UNL1       -0.0238
     30 H          -6.8726    3.6112   -2.2778 H       1  UNL1        0.0312
     31 C          -5.1876    3.7952   -3.5749 C.3     1  UNL1       -0.0024
     32 C          -5.9718    4.0493   -4.8881 C.3     1  UNL1        0.0193
     33 H          -5.3768    3.7418   -5.7456 H       1  UNL1        0.0889
     34 C          -7.2645    3.1934   -4.7940 C.3     1  UNL1        0.1508
     35 H          -7.5176    2.7625   -5.7586 H       1  UNL1        0.0797
     36 O          -8.3608    3.9786   -4.2621 O.3     1  UNL1       -0.4553
     37 C          -9.4209    4.1666   -5.0637 C.2     1  UNL1        0.3044
     38 O          -9.4119    3.7288   -6.1898 O.2     1  UNL1       -0.2512
     39 C         -10.6223    4.9236   -4.5591 C.3     1  UNL1        0.0332
     40 N          -6.3190    5.4727   -4.9957 N.4     1  UNL1        0.2459
     41 C          -5.1136    6.2459   -5.3174 C.3     1  UNL1       -0.0299
     42 C          -5.4837    7.7180   -5.5104 C.3     1  UNL1       -0.0123
     43 C          -6.1073    8.2555   -4.2191 C.3     1  UNL1       -0.0434
     44 C          -7.3203    7.3953   -3.8531 C.3     1  UNL1       -0.0123
     45 C          -6.8821    5.9351   -3.7215 C.3     1  UNL1       -0.0299
     46 C          -7.3125    5.6535   -6.0626 C.3     1  UNL1       -0.0409
     47 C          -5.8993    1.1324   -4.5219 C.3     1  UNL1       -0.0557
     48 H          -3.2485   -1.0175    5.9612 H       1  UNL1        0.0342
     49 H          -1.5668   -1.0523    5.3790 H       1  UNL1        0.0342
     50 H          -2.2011    0.4048    6.1806 H       1  UNL1        0.0342
     51 H          -4.5772   -1.5710    1.5195 H       1  UNL1        0.0306
     52 H          -3.0206   -0.7462    1.3521 H       1  UNL1        0.0306
     53 H          -3.8143    1.9213    0.3960 H       1  UNL1        0.0268
     54 H          -2.6144    0.8765   -0.3949 H       1  UNL1        0.0268
     55 H          -3.4637    2.6298   -1.9386 H       1  UNL1        0.0268
     56 H          -3.9045    0.9962   -2.5087 H       1  UNL1        0.0268
     57 H          -5.9010    2.1549    0.8968 H       1  UNL1        0.0326
     58 H          -7.4822    1.3584    1.0210 H       1  UNL1        0.0326
     59 H          -8.1753    2.2379    2.6233 H       1  UNL1        0.0814
     60 H          -8.2715    0.8181    3.6922 H       1  UNL1        0.0814
     61 H          -7.7600    2.2474    5.6477 H       1  UNL1        0.0317
     62 H          -9.2027    2.8441    4.7913 H       1  UNL1        0.0317
     63 H          -7.6347    4.6968    5.3831 H       1  UNL1        0.0269
     64 H          -7.8338    4.5304    3.6210 H       1  UNL1        0.0269
     65 H          -5.5346    3.4063    5.2869 H       1  UNL1        0.0317
     66 H          -5.4458    4.8000    4.1827 H       1  UNL1        0.0317
     67 H          -4.5989    2.7307    3.0969 H       1  UNL1        0.0814
     68 H          -6.0578    3.3406    2.2800 H       1  UNL1        0.0814
     69 H          -6.5293   -1.5467    1.0378 H       1  UNL1        0.0235
     70 H          -7.8596   -0.8861    0.0568 H       1  UNL1        0.0235
     71 H          -6.5255   -1.7642   -0.7288 H       1  UNL1        0.0235
     72 H          -8.4515    0.3379   -1.3295 H       1  UNL1        0.0268
     73 H          -8.0741    2.0676   -1.1732 H       1  UNL1        0.0268
     74 H          -8.0850    0.3323   -3.6749 H       1  UNL1        0.0272
     75 H          -8.9515    1.8540   -3.3823 H       1  UNL1        0.0272
     76 H          -4.2572    3.2752   -3.7797 H       1  UNL1        0.0324
     77 H          -4.9950    4.7396   -3.0666 H       1  UNL1        0.0324
     78 H         -10.5004    5.9848   -4.7758 H       1  UNL1        0.0342
     79 H         -11.5198    4.5525   -5.0541 H       1  UNL1        0.0342
     80 H         -10.7158    4.7809   -3.4826 H       1  UNL1        0.0342
     81 H          -4.3963    6.1560   -4.5016 H       1  UNL1        0.0815
     82 H          -4.6691    5.8602   -6.2349 H       1  UNL1        0.0815
     83 H          -6.2008    7.8091   -6.3262 H       1  UNL1        0.0317
     84 H          -4.5875    8.2913   -5.7478 H       1  UNL1        0.0317
     85 H          -6.4244    9.2875   -4.3694 H       1  UNL1        0.0269
     86 H          -5.3740    8.2131   -3.4137 H       1  UNL1        0.0269
     87 H          -8.0755    7.4796   -4.6345 H       1  UNL1        0.0317
     88 H          -7.7371    7.7370   -2.9056 H       1  UNL1        0.0317
     89 H          -7.7432    5.3198   -3.4607 H       1  UNL1        0.0815
     90 H          -6.1270    5.8523   -2.9398 H       1  UNL1        0.0815
     91 H          -7.8702    4.7273   -6.2006 H       1  UNL1        0.0778
     92 H          -7.9995    6.4538   -5.7875 H       1  UNL1        0.0778
     93 H          -6.8048    5.9138   -6.9914 H       1  UNL1        0.0778
     94 H          -6.4355    0.6126   -5.3159 H       1  UNL1        0.0236
     95 H          -5.0767    1.7034   -4.9526 H       1  UNL1        0.0236
     96 H          -5.5045    0.4045   -3.8131 H       1  UNL1        0.0236
     97 N          -6.3340    1.6031    3.4676 N.4     1  UNL1        0.2400
     98 H          -5.9983    1.2384    4.3668 H       1  UNL1        0.2037
@<TRIPOS>UNITY_ATOM_ATTR
40 1
charge 1
97 1
charge 1
@<TRIPOS>BOND
     1     1     2    1
     2     1    48    1
     3     1    49    1
     4     1    50    1
     5     2     3    2
     6     2     4    1
     7     4     5    1
     8     5     6    1
     9     5    18    1
    10     5     7    1
    11     7     8    1
    12     7    51    1
    13     7    52    1
    14     8     9    1
    15     8    16    1
    16     8    10    1
    17    10    11    1
    18    10    53    1
    19    10    54    1
    20    11    12    1
    21    11    55    1
    22    11    56    1
    23    12    13    1
    24    12    29    1
    25    12    14    1
    26    14    15    1
    27    14    16    1
    28    14    26    1
    29    16    17    1
    30    16    25    1
    31    17    18    1
    32    17    57    1
    33    17    58    1
    34    18    19    1
    35    18    97    1
    36    20    21    1
    37    20    59    1
    38    20    60    1
    39    20    97    1
    40    21    22    1
    41    21    61    1
    42    21    62    1
    43    22    23    1
    44    22    63    1
    45    22    64    1
    46    23    24    1
    47    23    65    1
    48    23    66    1
    49    24    67    1
    50    24    68    1
    51    24    97    1
    52    25    69    1
    53    25    70    1
    54    25    71    1
    55    26    27    1
    56    26    72    1
    57    26    73    1
    58    27    28    1
    59    27    74    1
    60    27    75    1
    61    28    34    1
    62    28    29    1
    63    28    47    1
    64    29    30    1
    65    29    31    1
    66    31    32    1
    67    31    76    1
    68    31    77    1
    69    32    33    1
    70    32    34    1
    71    32    40    1
    72    34    35    1
    73    34    36    1
    74    36    37    1
    75    37    38    2
    76    37    39    1
    77    39    78    1
    78    39    79    1
    79    39    80    1
    80    40    45    1
    81    40    41    1
    82    40    46    1
    83    41    42    1
    84    41    81    1
    85    41    82    1
    86    42    43    1
    87    42    83    1
    88    42    84    1
    89    43    44    1
    90    43    85    1
    91    43    86    1
    92    44    45    1
    93    44    87    1
    94    44    88    1
    95    45    89    1
    96    45    90    1
    97    46    91    1
    98    46    92    1
    99    46    93    1
   100    47    94    1
   101    47    95    1
   102    47    96    1
   103    97    98    1
