@<TRIPOS>MOLECULE
ZINC04198851
 51 55 0 0 0
SMALL
GASTEIGER

@<TRIPOS>ATOM
      1 C          -0.0242    3.4535   -0.8980 C.3     1  UNL1       -0.0569
      2 C           1.1511    3.0962    0.0077 C.3     1  UNL1       -0.0030
      3 C           1.0063    3.7513    1.3584 C.3     1  UNL1       -0.0447
      4 C           1.1716    5.2763    1.2105 C.3     1  UNL1       -0.0488
      5 C           2.5106    5.6362    0.5935 C.3     1  UNL1       -0.0297
      6 H           3.2788    5.2166    1.2712 H       1  UNL1        0.0310
      7 C           2.7301    4.9341   -0.7513 C.3     1  UNL1       -0.0341
      8 H           3.7935    5.1016   -1.0284 H       1  UNL1        0.0306
      9 C           2.5226    3.4629   -0.5932 C.3     1  UNL1       -0.0301
     10 H           3.3094    3.0840    0.1017 H       1  UNL1        0.0310
     11 C           2.5685    2.5694   -1.8376 C.3     1  UNL1       -0.0470
     12 C           1.9828    1.2282   -1.3088 C.3     1  UNL1       -0.0261
     13 C           1.2621    1.5585    0.0242 C.3     1  UNL1        0.0609
     14 H           1.8564    1.2409    0.8735 H       1  UNL1        0.0599
     15 O          -0.0393    0.9789    0.0503 O.3     1  UNL1       -0.3912
     16 C           1.8758    5.5990   -1.8204 C.3     1  UNL1       -0.0469
     17 C           2.4691    6.9835   -2.0907 C.3     1  UNL1       -0.0200
     18 C           2.5039    7.8037   -0.8037 C.3     1  UNL1        0.1091
     19 C           2.8031    7.1094    0.5150 C.3     1  UNL1        0.0045
     20 C           4.2683    7.3805    0.8892 C.3     1  UNL1       -0.0220
     21 C           4.4715    8.8639    1.0722 C.3     1  UNL1        0.1074
     22 C           3.9271    9.7294    0.1973 C.2     1  UNL1        0.1814
     23 C           3.1114    9.2172   -0.9605 C.3     1  UNL1        0.1478
     24 H           3.6435    9.2594   -1.8061 H       1  UNL1        0.0706
     25 O           1.7163    8.9981   -0.7587 O.3     1  UNL1       -0.3562
     26 O           4.1109   11.0561    0.3604 O.2     1  UNL1       -0.2932
     27 C           5.2484    9.3546    2.1724 C.1     1  UNL1        0.0736
     28 N           5.8641    9.7435    3.0443 N.1     1  UNL1       -0.1958
     29 C           1.9628    7.8283    1.5696 C.3     1  UNL1       -0.0565
     30 H          -0.9139    2.9178   -0.5672 H       1  UNL1        0.0236
     31 H          -0.2073    4.5269   -0.8492 H       1  UNL1        0.0236
     32 H           0.2093    3.1711   -1.9246 H       1  UNL1        0.0236
     33 H           0.0187    3.5359    1.7751 H       1  UNL1        0.0271
     34 H           1.7695    3.3718    2.0432 H       1  UNL1        0.0271
     35 H           0.3568    5.6774    0.6182 H       1  UNL1        0.0268
     36 H           1.0999    5.6710    2.2312 H       1  UNL1        0.0268
     37 H           1.9684    2.9699   -2.6478 H       1  UNL1        0.0269
     38 H           3.6014    2.4261   -2.1647 H       1  UNL1        0.0269
     39 H           2.7886    0.5165   -1.1307 H       1  UNL1        0.0290
     40 H           1.2742    0.8207   -2.0276 H       1  UNL1        0.0290
     41 H          -0.0391    0.0120    0.0617 H       1  UNL1        0.2098
     42 H           1.8818    5.0170   -2.7380 H       1  UNL1        0.0269
     43 H           0.8549    5.7468   -1.4671 H       1  UNL1        0.0269
     44 H           3.4808    6.8685   -2.4717 H       1  UNL1        0.0294
     45 H           1.8548    7.4957   -2.8274 H       1  UNL1        0.0294
     46 H           4.9129    7.0171    0.0873 H       1  UNL1        0.0288
     47 H           4.5060    6.8555    1.8143 H       1  UNL1        0.0288
     48 H           3.7371    9.2332    1.6417 H       1  UNL1        0.0533
     49 H           2.2205    7.4504    2.5590 H       1  UNL1        0.0236
     50 H           2.1633    8.8988    1.5260 H       1  UNL1        0.0236
     51 H           0.9053    7.6485    1.3761 H       1  UNL1        0.0236
@<TRIPOS>BOND
     1     1     2    1
     2     1    30    1
     3     1    31    1
     4     1    32    1
     5     2     9    1
     6     2    13    1
     7     2     3    1
     8     3     4    1
     9     3    33    1
    10     3    34    1
    11     4     5    1
    12     4    35    1
    13     4    36    1
    14     5     6    1
    15     5    19    1
    16     5     7    1
    17     7     8    1
    18     7     9    1
    19     7    16    1
    20     9    10    1
    21     9    11    1
    22    11    12    1
    23    11    37    1
    24    11    38    1
    25    12    13    1
    26    12    39    1
    27    12    40    1
    28    13    14    1
    29    13    15    1
    30    15    41    1
    31    16    17    1
    32    16    42    1
    33    16    43    1
    34    17    18    1
    35    17    44    1
    36    17    45    1
    37    18    23    1
    38    18    25    1
    39    18    19    1
    40    19    20    1
    41    19    29    1
    42    20    21    1
    43    20    46    1
    44    20    47    1
    45    21    27    1
    46    21    48    1
    47    21    22    1
    48    22    23    1
    49    22    26    2
    50    23    25    1
    51    23    24    1
    52    27    28    3
    53    29    49    1
    54    29    50    1
    55    29    51    1
