@<TRIPOS>MOLECULE
ZINC11592735
 54 57 0 0 0
SMALL
GASTEIGER

@<TRIPOS>ATOM
      1 C          -2.6120    0.1259   -0.7573 C.3     1  UNL1       -0.0562
      2 C          -2.1153    1.5730   -0.7528 C.3     1  UNL1        0.0091
      3 C          -3.0050    2.4286   -1.6377 C.3     1  UNL1       -0.0178
      4 C          -2.5309    2.2691   -3.0893 C.3     1  UNL1        0.0600
      5 H          -3.3788    2.3956   -3.7625 H       1  UNL1        0.0596
      6 C          -1.9231    0.8795   -3.2941 C.3     1  UNL1        0.0007
      7 H          -2.6168    0.1818   -2.8249 H       1  UNL1        0.0340
      8 C          -0.6074    0.7503   -2.5440 C.3     1  UNL1       -0.0311
      9 H          -0.4709   -0.2867   -2.2373 H       1  UNL1        0.0308
     10 C          -0.6699    1.6383   -1.3099 C.3     1  UNL1       -0.0292
     11 H          -0.3835    2.6610   -1.5549 H       1  UNL1        0.0310
     12 C           0.1562    1.1081   -0.1268 C.3     1  UNL1       -0.0463
     13 C          -0.5203    1.7571    1.1074 C.3     1  UNL1       -0.0162
     14 C          -1.9739    2.0867    0.6819 C.3     1  UNL1        0.1315
     15 C          -2.2030    3.5755    0.7262 C.2     1  UNL1        0.1902
     16 O          -1.2805    4.3340    0.5471 O.2     1  UNL1       -0.2919
     17 C          -3.5833    4.1178    0.9941 C.3     1  UNL1        0.1052
     18 O          -3.5436    5.5463    0.9863 O.3     1  UNL1       -0.3874
     19 O          -2.9019    1.4183    1.5387 O.3     1  UNL1       -0.3804
     20 C           0.5639    1.1761   -3.4303 C.3     1  UNL1       -0.0458
     21 C           0.7178    0.1199   -4.5301 C.3     1  UNL1       -0.0302
     22 C          -0.5767    0.0296   -5.2917 C.2     1  UNL1       -0.0559
     23 C          -0.5513   -0.5125   -6.5267 C.2     1  UNL1       -0.0149
     24 C          -1.8648   -0.5879   -7.2194 C.2     1  UNL1        0.1787
     25 O          -1.9908   -0.3666   -8.4094 O.2     1  UNL1       -0.2879
     26 C          -3.0127   -0.9538   -6.3482 C.2     1  UNL1       -0.0180
     27 C          -3.0062   -0.4104   -5.1181 C.2     1  UNL1       -0.0701
     28 C          -1.8763    0.5198   -4.7511 C.3     1  UNL1        0.0131
     29 C          -2.1677    1.8264   -5.4918 C.3     1  UNL1       -0.0520
     30 O          -1.5468    3.2640   -3.3785 O.3     1  UNL1       -0.3914
     31 H          -2.3708   -0.3440    0.1962 H       1  UNL1        0.0236
     32 H          -3.6917    0.1128   -0.9060 H       1  UNL1        0.0236
     33 H          -2.1273   -0.4221   -1.5653 H       1  UNL1        0.0236
     34 H          -2.9265    3.4736   -1.3377 H       1  UNL1        0.0297
     35 H          -4.0395    2.0967   -1.5499 H       1  UNL1        0.0297
     36 H           0.0945    0.0212   -0.0716 H       1  UNL1        0.0269
     37 H           1.1946    1.4291   -0.2088 H       1  UNL1        0.0269
     38 H          -0.5223    1.0578    1.9435 H       1  UNL1        0.0297
     39 H           0.0056    2.6706    1.3848 H       1  UNL1        0.0297
     40 H          -4.2107    3.7978    0.2842 H       1  UNL1        0.0637
     41 H          -3.9280    3.7693    1.9676 H       1  UNL1        0.0637
     42 H          -4.3996    5.9644    1.1524 H       1  UNL1        0.2100
     43 H          -2.8594    1.7022    2.4622 H       1  UNL1        0.2108
     44 H           0.3555    2.1482   -3.8773 H       1  UNL1        0.0271
     45 H           1.4768    1.2286   -2.8372 H       1  UNL1        0.0271
     46 H           1.5212    0.4106   -5.2069 H       1  UNL1        0.0310
     47 H           0.9460   -0.8464   -4.0802 H       1  UNL1        0.0310
     48 H           0.3615   -0.8675   -6.9817 H       1  UNL1        0.0655
     49 H          -3.8007   -1.6128   -6.6816 H       1  UNL1        0.0653
     50 H          -3.7907   -0.6341   -4.4104 H       1  UNL1        0.0582
     51 H          -2.0796    1.6627   -6.5658 H       1  UNL1        0.0241
     52 H          -3.1786    2.1596   -5.2568 H       1  UNL1        0.0241
     53 H          -1.4526    2.5879   -5.1805 H       1  UNL1        0.0241
     54 H          -1.8616    4.1719   -3.2699 H       1  UNL1        0.2098
@<TRIPOS>BOND
     1     1     2    1
     2     1    31    1
     3     1    32    1
     4     1    33    1
     5     2    10    1
     6     2    14    1
     7     2     3    1
     8     3     4    1
     9     3    34    1
    10     3    35    1
    11     4     5    1
    12     4     6    1
    13     4    30    1
    14     6     7    1
    15     6    28    1
    16     6     8    1
    17     8     9    1
    18     8    10    1
    19     8    20    1
    20    10    11    1
    21    10    12    1
    22    12    13    1
    23    12    36    1
    24    12    37    1
    25    13    14    1
    26    13    38    1
    27    13    39    1
    28    14    15    1
    29    14    19    1
    30    15    16    2
    31    15    17    1
    32    17    18    1
    33    17    40    1
    34    17    41    1
    35    18    42    1
    36    19    43    1
    37    20    21    1
    38    20    44    1
    39    20    45    1
    40    21    22    1
    41    21    46    1
    42    21    47    1
    43    22    28    1
    44    22    23    2
    45    23    24    1
    46    23    48    1
    47    24    25    2
    48    24    26    1
    49    26    27    2
    50    26    49    1
    51    27    28    1
    52    27    50    1
    53    28    29    1
    54    29    51    1
    55    29    52    1
    56    29    53    1
    57    30    54    1
