@<TRIPOS>MOLECULE
ZINC00001728
 31 32 0 0 0
SMALL
GASTEIGER

@<TRIPOS>ATOM
      1 C           1.3559    2.2432   -0.1011 C.3     1  UNL1       -0.0486
      2 C          -0.0074    1.5534   -0.0203 C.3     1  UNL1        0.0543
      3 C          -0.8469    1.9386   -1.2400 C.3     1  UNL1       -0.0486
      4 C          -0.7171    1.9890    1.2358 C.ar    1  UNL1       -0.0162
      5 C          -0.8705    3.3368    1.5241 C.ar    1  UNL1       -0.0548
      6 C          -1.5342    3.6909    2.6886 C.ar    1  UNL1       -0.0433
      7 C          -2.0087    2.6960    3.5226 C.ar    1  UNL1        0.0276
      8 N          -1.8402    1.4240    3.2188 N.ar    1  UNL1       -0.2630
      9 C          -1.2180    1.0505    2.1176 C.ar    1  UNL1        0.0317
     10 C           0.1863    0.0592    0.0046 C.2     1  UNL1        0.1745
     11 O          -0.3453   -0.6352   -0.8353 O.2     1  UNL1       -0.2911
     12 C           1.0206   -0.5574    1.0484 C.ar    1  UNL1        0.0363
     13 C           1.3132   -1.9290    1.0109 C.ar    1  UNL1       -0.0483
     14 C           2.1052   -2.4572    2.0139 C.ar    1  UNL1       -0.0429
     15 C           2.5715   -1.6266    3.0179 C.ar    1  UNL1        0.0276
     16 N           2.2767   -0.3406    3.0315 N.ar    1  UNL1       -0.2626
     17 C           1.5308    0.2123    2.0981 C.ar    1  UNL1        0.0380
     18 H           1.8292    2.0022   -1.0529 H       1  UNL1        0.0242
     19 H           1.2223    3.3222   -0.0247 H       1  UNL1        0.0242
     20 H           1.9875    1.8964    0.7168 H       1  UNL1        0.0242
     21 H          -1.8478    1.5188   -1.1395 H       1  UNL1        0.0242
     22 H          -0.9135    3.0245   -1.3071 H       1  UNL1        0.0242
     23 H          -0.3776    1.5470   -2.1425 H       1  UNL1        0.0242
     24 H          -0.4857    4.0925    0.8554 H       1  UNL1        0.0621
     25 H          -1.6750    4.7311    2.9429 H       1  UNL1        0.0633
     26 H          -2.5232    2.9636    4.4337 H       1  UNL1        0.0829
     27 H          -1.0990   -0.0011    1.9023 H       1  UNL1        0.0832
     28 H           0.9328   -2.5552    0.2174 H       1  UNL1        0.0625
     29 H           2.3542   -3.5081    2.0158 H       1  UNL1        0.0633
     30 H           3.1870   -2.0383    3.8041 H       1  UNL1        0.0829
     31 H           1.3117    1.2688    2.1435 H       1  UNL1        0.0836
@<TRIPOS>BOND
     1     1     2    1
     2     1    18    1
     3     1    19    1
     4     1    20    1
     5     2     3    1
     6     2     4    1
     7     2    10    1
     8     3    21    1
     9     3    22    1
    10     3    23    1
    11     4     9   ar
    12     4     5   ar
    13     5     6   ar
    14     5    24    1
    15     6     7   ar
    16     6    25    1
    17     7     8   ar
    18     7    26    1
    19     8     9   ar
    20     9    27    1
    21    10    11    2
    22    10    12    1
    23    12    17   ar
    24    12    13   ar
    25    13    14   ar
    26    13    28    1
    27    14    15   ar
    28    14    29    1
    29    15    16   ar
    30    15    30    1
    31    16    17   ar
    32    17    31    1
