@<TRIPOS>MOLECULE
ZINC03813088
 58 58 0 0 0
SMALL
GASTEIGER

@<TRIPOS>ATOM
      1 C          -4.3669    8.9034    4.6047 C.3     1  UNL1       -0.0653
      2 C          -4.2482    7.3799    4.6796 C.3     1  UNL1       -0.0559
      3 C          -3.4582    6.8700    3.4725 C.3     1  UNL1       -0.0532
      4 C          -3.3394    5.3464    3.5474 C.3     1  UNL1       -0.0504
      5 C          -2.5495    4.8365    2.3404 C.3     1  UNL1       -0.0232
      6 C          -2.4307    3.3130    2.4153 C.3     1  UNL1        0.0734
      7 H          -3.4251    2.8748    2.5005 H       1  UNL1        0.0637
      8 C          -1.7608    2.7994    1.1669 C.2     1  UNL1       -0.0595
      9 C          -0.6888    2.0521    1.2589 C.2     1  UNL1       -0.0793
     10 C          -0.0188    1.5386    0.0105 C.3     1  UNL1        0.0131
     11 H          -0.5205    1.9197   -0.8790 H       1  UNL1        0.0375
     12 C           1.4814    1.9274   -0.0017 C.3     1  UNL1        0.0688
     13 H           1.9056    1.8671    1.0005 H       1  UNL1        0.0603
     14 C           2.0957    0.8468   -0.9259 C.3     1  UNL1        0.0327
     15 C           1.3354   -0.4218   -0.5822 C.2     1  UNL1        0.1395
     16 O           1.7221   -1.5542   -0.7450 O.2     1  UNL1       -0.2970
     17 C           0.0021   -0.0041    0.0020 C.3     1  UNL1        0.0262
     18 H          -0.1023   -0.3440    0.9366 H       1  UNL1        0.0384
     19 C          -1.1400   -0.5377   -0.8651 C.3     1  UNL1       -0.0429
     20 C          -1.1854   -2.0638   -0.7659 C.3     1  UNL1       -0.0524
     21 C          -2.3274   -2.5975   -1.6330 C.3     1  UNL1       -0.0530
     22 C          -2.3728   -4.1236   -1.5338 C.3     1  UNL1       -0.0527
     23 C          -3.5149   -4.6573   -2.4009 C.3     1  UNL1       -0.0480
     24 C          -3.5603   -6.1834   -2.3017 C.3     1  UNL1       -0.0132
     25 C          -4.6851   -6.7091   -3.1557 C.2     1  UNL1        0.0417
     26 O          -5.3793   -5.9418   -3.7797 O.co2   1  UNL1       -0.5498
     27 O           1.6636    3.2324   -0.5547 O.3     1  UNL1       -0.3908
     28 O          -1.6514    2.9515    3.5572 O.3     1  UNL1       -0.3878
     29 H          -3.3709    9.3461    4.6090 H       1  UNL1        0.0230
     30 H          -4.8848    9.1828    3.6872 H       1  UNL1        0.0230
     31 H          -4.9297    9.2667    5.4646 H       1  UNL1        0.0230
     32 H          -5.2442    6.9371    4.6753 H       1  UNL1        0.0263
     33 H          -3.7303    7.1005    5.5971 H       1  UNL1        0.0263
     34 H          -2.4622    7.3127    3.4768 H       1  UNL1        0.0265
     35 H          -3.9761    7.1494    2.5550 H       1  UNL1        0.0265
     36 H          -4.3355    4.9037    3.5432 H       1  UNL1        0.0266
     37 H          -2.8216    5.0670    4.4649 H       1  UNL1        0.0266
     38 H          -1.5535    5.2793    2.3447 H       1  UNL1        0.0293
     39 H          -3.0674    5.1159    1.4229 H       1  UNL1        0.0293
     40 H          -2.1645    3.0474    0.1963 H       1  UNL1        0.0594
     41 H          -0.2851    1.8041    2.2294 H       1  UNL1        0.0574
     42 H           3.0751    0.7671   -0.7403 H       1  UNL1        0.0367
     43 H           1.9455    1.1088   -1.9732 H       1  UNL1        0.0367
     44 H          -2.0855   -0.1227   -0.5163 H       1  UNL1        0.0272
     45 H          -0.9756   -0.2458   -1.9023 H       1  UNL1        0.0272
     46 H          -0.2398   -2.4789   -1.1147 H       1  UNL1        0.0265
     47 H          -1.3497   -2.3558    0.2714 H       1  UNL1        0.0265
     48 H          -3.2730   -2.1824   -1.2842 H       1  UNL1        0.0265
     49 H          -2.1631   -2.3056   -2.6702 H       1  UNL1        0.0265
     50 H          -1.4272   -4.5387   -1.8826 H       1  UNL1        0.0265
     51 H          -2.5372   -4.4156   -0.4965 H       1  UNL1        0.0265
     52 H          -4.4604   -4.2422   -2.0521 H       1  UNL1        0.0269
     53 H          -3.3505   -4.3654   -3.4381 H       1  UNL1        0.0269
     54 H          -2.6147   -6.5985   -2.6505 H       1  UNL1        0.0325
     55 H          -3.7246   -6.4754   -1.2644 H       1  UNL1        0.0325
     56 H           2.5859    3.5218   -0.5843 H       1  UNL1        0.2098
     57 H          -0.7524    3.3077    3.5486 H       1  UNL1        0.2102
     58 O          -4.9159   -8.0296   -3.2232 O.co2   1  UNL1       -0.5498
@<TRIPOS>UNITY_ATOM_ATTR
58 1
charge -1
@<TRIPOS>BOND
     1     1     2    1
     2     1    29    1
     3     1    30    1
     4     1    31    1
     5     2     3    1
     6     2    32    1
     7     2    33    1
     8     3     4    1
     9     3    34    1
    10     3    35    1
    11     4     5    1
    12     4    36    1
    13     4    37    1
    14     5     6    1
    15     5    38    1
    16     5    39    1
    17     6     7    1
    18     6     8    1
    19     6    28    1
    20     8     9    2
    21     8    40    1
    22     9    10    1
    23     9    41    1
    24    10    11    1
    25    10    17    1
    26    10    12    1
    27    12    13    1
    28    12    14    1
    29    12    27    1
    30    14    15    1
    31    14    42    1
    32    14    43    1
    33    15    16    2
    34    15    17    1
    35    17    18    1
    36    17    19    1
    37    19    20    1
    38    19    44    1
    39    19    45    1
    40    20    21    1
    41    20    46    1
    42    20    47    1
    43    21    22    1
    44    21    48    1
    45    21    49    1
    46    22    23    1
    47    22    50    1
    48    22    51    1
    49    23    24    1
    50    23    52    1
    51    23    53    1
    52    24    25    1
    53    24    54    1
    54    24    55    1
    55    25    26   ar
    56    25    58   ar
    57    27    56    1
    58    28    57    1
