@<TRIPOS>MOLECULE
ZINC00057320
 44 45 0 0 0
SMALL
GASTEIGER

@<TRIPOS>ATOM
      1 C          -2.5918   -3.5851    3.2059 C.3     1  UNL1       -0.0213
      2 C          -3.2940   -2.2799    2.8259 C.3     1  UNL1       -0.0214
      3 H          -2.9950   -1.4919    3.5170 H       1  UNL1        0.0851
      4 C          -4.8096   -2.4757    2.9006 C.3     1  UNL1        0.0152
      5 C          -5.4992   -1.1601    2.6465 C.ar    1  UNL1       -0.0418
      6 C          -5.7933   -0.3195    3.7041 C.ar    1  UNL1       -0.0549
      7 C          -6.4204    0.8896    3.4732 C.ar    1  UNL1       -0.0199
      8 C          -6.7647    1.2553    2.1800 C.ar    1  UNL1        0.1169
      9 C          -6.4736    0.4075    1.1212 C.ar    1  UNL1       -0.0199
     10 C          -5.8417   -0.7982    1.3568 C.ar    1  UNL1       -0.0549
     11 O          -7.3866    2.4417    1.9509 O.3     1  UNL1       -0.5068
     12 C          -1.6533   -1.1504    1.4494 C.3     1  UNL1       -0.0025
     13 C          -1.2934   -0.7740    0.0107 C.3     1  UNL1        0.1199
     14 H          -2.0858   -0.1567   -0.4124 H       1  UNL1        0.0698
     15 C           0.0021   -0.0041    0.0020 C.ar    1  UNL1       -0.0072
     16 C          -0.0167    1.3775    0.0096 C.ar    1  UNL1       -0.0141
     17 C           1.1749    2.0888    0.0021 C.ar    1  UNL1        0.1207
     18 C           2.3847    1.4121   -0.0135 C.ar    1  UNL1        0.0213
     19 C           2.4009    0.0258   -0.0211 C.ar    1  UNL1        0.1207
     20 C           1.2066   -0.6809   -0.0131 C.ar    1  UNL1       -0.0141
     21 O           3.5853   -0.6404   -0.0360 O.3     1  UNL1       -0.5066
     22 O           1.1558    3.4476    0.0095 O.3     1  UNL1       -0.5066
     23 O          -1.1467   -1.9619   -0.7699 O.3     1  UNL1       -0.3819
     24 H          -2.8908   -4.3731    2.5148 H       1  UNL1        0.0284
     25 H          -1.5121   -3.4456    3.1527 H       1  UNL1        0.0284
     26 H          -2.8722   -3.8663    4.2210 H       1  UNL1        0.0284
     27 H          -5.1199   -3.2000    2.1474 H       1  UNL1        0.0368
     28 H          -5.0802   -2.8425    3.8907 H       1  UNL1        0.0368
     29 H          -5.5290   -0.6066    4.7112 H       1  UNL1        0.0621
     30 H          -6.6456    1.5480    4.2992 H       1  UNL1        0.0654
     31 H          -6.7403    0.6901    0.1135 H       1  UNL1        0.0654
     32 H          -5.6149   -1.4585    0.5328 H       1  UNL1        0.0621
     33 H          -8.3518    2.3925    1.9830 H       1  UNL1        0.2921
     34 H          -0.8609   -1.7677    1.8725 H       1  UNL1        0.0843
     35 H          -1.7652   -0.2443    2.0448 H       1  UNL1        0.0843
     36 H          -0.9594    1.9043    0.0169 H       1  UNL1        0.0658
     37 H           3.3131    1.9639   -0.0201 H       1  UNL1        0.0691
     38 H           1.2187   -1.7608   -0.0190 H       1  UNL1        0.0658
     39 H           3.9194   -0.8287   -0.9237 H       1  UNL1        0.2921
     40 H           1.1587    3.8362    0.8950 H       1  UNL1        0.2921
     41 H          -0.4572   -2.5599   -0.4504 H       1  UNL1        0.2105
     42 N          -2.9218   -1.9033    1.4492 N.4     1  UNL1        0.2313
     43 H          -3.6629   -1.3181    1.0460 H       1  UNL1        0.2017
     44 H          -2.8111   -2.7532    0.8837 H       1  UNL1        0.2017
@<TRIPOS>UNITY_ATOM_ATTR
42 1
charge 1
@<TRIPOS>BOND
     1     1     2    1
     2     1    24    1
     3     1    25    1
     4     1    26    1
     5     2     3    1
     6     2     4    1
     7     2    42    1
     8     4     5    1
     9     4    27    1
    10     4    28    1
    11     5    10   ar
    12     5     6   ar
    13     6     7   ar
    14     6    29    1
    15     7     8   ar
    16     7    30    1
    17     8     9   ar
    18     8    11    1
    19     9    10   ar
    20     9    31    1
    21    10    32    1
    22    11    33    1
    23    12    13    1
    24    12    34    1
    25    12    35    1
    26    12    42    1
    27    13    14    1
    28    13    15    1
    29    13    23    1
    30    15    20   ar
    31    15    16   ar
    32    16    17   ar
    33    16    36    1
    34    17    18   ar
    35    17    22    1
    36    18    19   ar
    37    18    37    1
    38    19    20   ar
    39    19    21    1
    40    20    38    1
    41    21    39    1
    42    22    40    1
    43    23    41    1
    44    42    43    1
    45    42    44    1
