@<TRIPOS>MOLECULE
ZINC00013347
 46 47 0 0 0
SMALL
GASTEIGER

@<TRIPOS>ATOM
      1 C           5.4961   -3.5936    0.3946 C.3     1  UNL1       -0.0570
      2 C           4.9046   -2.4048    1.1547 C.3     1  UNL1        0.0217
      3 C           5.1596   -1.1369    0.3812 C.2     1  UNL1        0.2210
      4 O           5.5698   -1.1941   -0.7587 O.2     1  UNL1       -0.2752
      5 N           4.9319    0.0606    0.9561 N.am    1  UNL1       -0.2482
      6 C           5.0349    1.2275    0.2004 C.ar    1  UNL1        0.1278
      7 C           5.0566    2.4623    0.8393 C.ar    1  UNL1       -0.0213
      8 C           5.1592    3.6125    0.0773 C.ar    1  UNL1       -0.0571
      9 C           5.2369    3.4877   -1.3033 C.ar    1  UNL1       -0.0435
     10 C           5.2098    2.2293   -1.8708 C.ar    1  UNL1        0.0297
     11 N           5.1167    1.1496   -1.1182 N.ar    1  UNL1       -0.2399
     12 C           4.5761    0.1360    2.3753 C.3     1  UNL1        0.0694
     13 H           4.2950    1.1590    2.6255 H       1  UNL1        0.0555
     14 C           5.7766   -0.2854    3.2251 C.3     1  UNL1       -0.0410
     15 C           3.3987   -0.7998    2.6563 C.3     1  UNL1       -0.0127
     16 C           1.1390   -1.3541    1.9876 C.3     1  UNL1       -0.0318
     17 C           0.0940   -1.1572    0.8871 C.3     1  UNL1       -0.0123
     18 C          -0.2952    0.3221    0.8183 C.3     1  UNL1       -0.0434
     19 C           0.9600    1.1606    0.5615 C.3     1  UNL1       -0.0123
     20 C           1.9799    0.8966    1.6715 C.3     1  UNL1       -0.0318
     21 H           5.3117   -4.5107    0.9541 H       1  UNL1        0.0234
     22 H           5.0280   -3.6665   -0.5870 H       1  UNL1        0.0234
     23 H           6.5701   -3.4506    0.2753 H       1  UNL1        0.0234
     24 H           5.3727   -2.3319    2.1364 H       1  UNL1        0.0356
     25 H           3.8306   -2.5479    1.2740 H       1  UNL1        0.0356
     26 H           4.9946    2.5226    1.9158 H       1  UNL1        0.0652
     27 H           5.1781    4.5854    0.5458 H       1  UNL1        0.0619
     28 H           5.3174    4.3658   -1.9268 H       1  UNL1        0.0633
     29 H           5.2699    2.1272   -2.9443 H       1  UNL1        0.0830
     30 H           6.5711    0.4539    3.1235 H       1  UNL1        0.0250
     31 H           5.4756   -0.3539    4.2705 H       1  UNL1        0.0250
     32 H           6.1384   -1.2563    2.8868 H       1  UNL1        0.0250
     33 H           3.0336   -0.6303    3.6692 H       1  UNL1        0.0833
     34 H           3.7254   -1.8349    2.5563 H       1  UNL1        0.0833
     35 H           0.7167   -1.0554    2.9471 H       1  UNL1        0.0814
     36 H           1.4289   -2.4040    2.0296 H       1  UNL1        0.0814
     37 H          -0.7887   -1.7557    1.1122 H       1  UNL1        0.0317
     38 H           0.5110   -1.4686   -0.0706 H       1  UNL1        0.0317
     39 H          -1.0071    0.4741    0.0071 H       1  UNL1        0.0269
     40 H          -0.7479    0.6239    1.7628 H       1  UNL1        0.0269
     41 H           1.3906    0.8857   -0.4013 H       1  UNL1        0.0317
     42 H           0.6959    2.2181    0.5540 H       1  UNL1        0.0317
     43 H           1.5536    1.1847    2.6324 H       1  UNL1        0.0814
     44 H           2.8804    1.4813    1.4839 H       1  UNL1        0.0814
     45 N           2.3310   -0.5394    1.6688 N.4     1  UNL1        0.2365
     46 H           2.6706   -0.7974    0.7348 H       1  UNL1        0.2034
@<TRIPOS>UNITY_ATOM_ATTR
45 1
charge 1
@<TRIPOS>BOND
     1     1     2    1
     2     1    21    1
     3     1    22    1
     4     1    23    1
     5     2     3    1
     6     2    24    1
     7     2    25    1
     8     3     4    2
     9     3     5   am
    10     5     6    1
    11     5    12    1
    12     6    11   ar
    13     6     7   ar
    14     7     8   ar
    15     7    26    1
    16     8     9   ar
    17     8    27    1
    18     9    10   ar
    19     9    28    1
    20    10    11   ar
    21    10    29    1
    22    12    13    1
    23    12    14    1
    24    12    15    1
    25    14    30    1
    26    14    31    1
    27    14    32    1
    28    15    33    1
    29    15    34    1
    30    15    45    1
    31    16    17    1
    32    16    35    1
    33    16    36    1
    34    16    45    1
    35    17    18    1
    36    17    37    1
    37    17    38    1
    38    18    19    1
    39    18    39    1
    40    18    40    1
    41    19    20    1
    42    19    41    1
    43    19    42    1
    44    20    43    1
    45    20    44    1
    46    20    45    1
    47    45    46    1
