@<TRIPOS>MOLECULE
ZINC00056555
 46 48 0 0 0
SMALL
GASTEIGER

@<TRIPOS>ATOM
      1 C          -2.3605    5.2398    0.0534 C.3     1  UNL1        0.0790
      2 O          -2.4214    3.8121    0.0463 O.3     1  UNL1       -0.4915
      3 C          -1.2371    3.1437    0.0313 C.ar    1  UNL1        0.1615
      4 C          -0.0431    3.8467    0.0237 C.ar    1  UNL1       -0.0160
      5 C           1.1599    3.1657    0.0080 C.ar    1  UNL1       -0.0545
      6 C           1.1751    1.7833    0.0004 C.ar    1  UNL1       -0.0379
      7 C          -0.0126    1.0758    0.0080 C.ar    1  UNL1       -0.0128
      8 C          -1.2218    1.7523    0.0174 C.ar    1  UNL1        0.1618
      9 O          -2.3911    1.0578    0.0191 O.3     1  UNL1       -0.4914
     10 C          -2.2988   -0.3681    0.0109 C.3     1  UNL1        0.0790
     11 C           2.4893    1.0459   -0.0166 C.3     1  UNL1        0.0155
     12 C           2.9135    0.8083   -1.4431 C.ar    1  UNL1        0.0534
     13 C           2.5216   -0.3648   -2.1066 C.ar    1  UNL1        0.0074
     14 C           1.7347   -1.3452   -1.4809 C.ar    1  UNL1       -0.0069
     15 C           1.3823   -2.4675   -2.1723 C.ar    1  UNL1        0.1621
     16 C           1.7950   -2.6556   -3.5005 C.ar    1  UNL1        0.1621
     17 C           2.5513   -1.7144   -4.1388 C.ar    1  UNL1       -0.0085
     18 C           2.9342   -0.5539   -3.4520 C.ar    1  UNL1       -0.0110
     19 C           3.7272    0.4424   -4.0508 C.ar    1  UNL1       -0.0357
     20 C           4.0582    1.5419   -3.3189 C.ar    1  UNL1        0.0285
     21 N           3.6546    1.6958   -2.0650 N.ar    1  UNL1       -0.2589
     22 O           1.4276   -3.7833   -4.1637 O.3     1  UNL1       -0.4914
     23 C           1.8780   -3.9182   -5.5131 C.3     1  UNL1        0.0790
     24 O           0.6205   -3.4164   -1.5663 O.3     1  UNL1       -0.4914
     25 C           0.2306   -3.1692   -0.2139 C.3     1  UNL1        0.0790
     26 H          -1.8231    5.5761    0.9401 H       1  UNL1        0.0660
     27 H          -1.8402    5.5857   -0.8397 H       1  UNL1        0.0660
     28 H          -3.3717    5.6465    0.0653 H       1  UNL1        0.0660
     29 H          -0.0522    4.9266    0.0296 H       1  UNL1        0.0655
     30 H           2.0898    3.7148    0.0021 H       1  UNL1        0.0622
     31 H           0.0021   -0.0041    0.0020 H       1  UNL1        0.0658
     32 H          -1.7668   -0.6926   -0.8834 H       1  UNL1        0.0660
     33 H          -1.7584   -0.7024    0.8965 H       1  UNL1        0.0660
     34 H          -3.3009   -0.7971    0.0132 H       1  UNL1        0.0660
     35 H           3.2466    1.6414    0.4932 H       1  UNL1        0.0377
     36 H           2.3757    0.0891    0.4928 H       1  UNL1        0.0377
     37 H           1.4109   -1.2119   -0.4593 H       1  UNL1        0.0662
     38 H           2.8634   -1.8693   -5.1611 H       1  UNL1        0.0661
     39 H           4.0664    0.3372   -5.0707 H       1  UNL1        0.0639
     40 H           4.6670    2.3102   -3.7722 H       1  UNL1        0.0830
     41 H           1.5156   -4.8602   -5.9246 H       1  UNL1        0.0660
     42 H           1.4943   -3.0899   -6.1088 H       1  UNL1        0.0660
     43 H           2.9678   -3.9074   -5.5352 H       1  UNL1        0.0660
     44 H          -0.3537   -2.2503   -0.1665 H       1  UNL1        0.0660
     45 H          -0.3720   -4.0020    0.1485 H       1  UNL1        0.0660
     46 H           1.1201   -3.0667    0.4077 H       1  UNL1        0.0660
@<TRIPOS>BOND
     1     1     2    1
     2     1    26    1
     3     1    27    1
     4     1    28    1
     5     2     3    1
     6     3     8   ar
     7     3     4   ar
     8     4     5   ar
     9     4    29    1
    10     5     6   ar
    11     5    30    1
    12     6     7   ar
    13     6    11    1
    14     7     8   ar
    15     7    31    1
    16     8     9    1
    17     9    10    1
    18    10    32    1
    19    10    33    1
    20    10    34    1
    21    11    12    1
    22    11    35    1
    23    11    36    1
    24    12    21   ar
    25    12    13   ar
    26    13    18   ar
    27    13    14   ar
    28    14    15   ar
    29    14    37    1
    30    15    16   ar
    31    15    24    1
    32    16    17   ar
    33    16    22    1
    34    17    18   ar
    35    17    38    1
    36    18    19   ar
    37    19    20   ar
    38    19    39    1
    39    20    21   ar
    40    20    40    1
    41    22    23    1
    42    23    41    1
    43    23    42    1
    44    23    43    1
    45    24    25    1
    46    25    44    1
    47    25    45    1
    48    25    46    1
