@<TRIPOS>MOLECULE
ZINC00622123
 41 43 0 0 0
SMALL
GASTEIGER

@<TRIPOS>ATOM
      1 C           0.6742   -0.5147    1.2781 C.3     1  UNL1       -0.0575
      2 C           0.0021   -0.0041    0.0020 C.3     1  UNL1        0.0177
      3 H          -1.0187   -0.3829   -0.0498 H       1  UNL1        0.0350
      4 C           0.7925   -0.4815   -1.2209 C.3     1  UNL1        0.0170
      5 C           2.1701    0.1277   -1.1864 C.2     1  UNL1        0.1598
      6 O           3.1019   -0.4652   -1.6923 O.2     1  UNL1       -0.2926
      7 C           2.3883    1.3712   -0.5764 C.2     1  UNL1        0.0228
      8 C           1.3858    2.0605   -0.0001 C.2     1  UNL1        0.1521
      9 C          -0.0187    1.5250    0.0104 C.3     1  UNL1        0.2313
     10 C          -0.7527    2.0207    1.2356 C.2     1  UNL1        0.2213
     11 O          -0.4644    1.8354    2.4000 O.2     1  UNL1       -0.2870
     12 C          -1.8907    2.7751    0.7023 C.ar    1  UNL1        0.1068
     13 C          -2.9348    3.4695    1.3387 C.ar    1  UNL1        0.1378
     14 C          -3.9001    4.1032    0.5791 C.ar    1  UNL1        0.0242
     15 C          -3.8349    4.0526   -0.8079 C.ar    1  UNL1        0.1454
     16 C          -2.8063    3.3710   -1.4432 C.ar    1  UNL1        0.1250
     17 C          -1.8252    2.7272   -0.7007 C.ar    1  UNL1        0.1585
     18 O          -0.7482    2.0151   -1.1126 O.3     1  UNL1       -0.4674
     19 CL         -2.7462    3.3224   -3.1775 Cl      1  UNL1       -0.0759
     20 O          -4.7859    4.6761   -1.5484 O.3     1  UNL1       -0.4934
     21 C          -5.8180    5.3605   -0.8355 C.3     1  UNL1        0.0789
     22 O          -2.9947    3.5169    2.6929 O.3     1  UNL1       -0.4942
     23 C          -4.0840    4.2402    3.2693 C.3     1  UNL1        0.0788
     24 O           1.6455    3.2493    0.5764 O.2     1  UNL1       -0.4947
     25 C           3.0200    3.7156    0.5355 C.3     1  UNL1        0.0785
     26 H           0.1172   -0.1646    2.1472 H       1  UNL1        0.0234
     27 H           0.6881   -1.6046    1.2703 H       1  UNL1        0.0234
     28 H           1.6962   -0.1386    1.3259 H       1  UNL1        0.0234
     29 H           0.8649   -1.4787   -1.2025 H       1  UNL1        0.0349
     30 H           0.2784   -0.1715   -2.1307 H       1  UNL1        0.0349
     31 H           3.3852    1.7865   -0.5690 H       1  UNL1        0.0687
     32 H          -4.7041    4.6375    1.0633 H       1  UNL1        0.0692
     33 H          -6.5105    5.8137   -1.5449 H       1  UNL1        0.0660
     34 H          -6.3555    4.6520   -0.2052 H       1  UNL1        0.0660
     35 H          -5.3755    6.1379   -0.2127 H       1  UNL1        0.0660
     36 H          -5.0258    3.7941    2.9499 H       1  UNL1        0.0660
     37 H          -4.0127    4.1994    4.3562 H       1  UNL1        0.0660
     38 H          -4.0443    5.2790    2.9413 H       1  UNL1        0.0660
     39 H           3.6628    2.9969    1.0438 H       1  UNL1        0.0660
     40 H           3.3383    3.8175   -0.5020 H       1  UNL1        0.0660
     41 H           3.0907    4.6824    1.0338 H       1  UNL1        0.0660
@<TRIPOS>BOND
     1     1     2    1
     2     1    26    1
     3     1    27    1
     4     1    28    1
     5     2     3    1
     6     2     9    1
     7     2     4    1
     8     4     5    1
     9     4    29    1
    10     4    30    1
    11     5     6    2
    12     5     7    1
    13     7     8    2
    14     7    31    1
    15     8     9    1
    16     8    24    1
    17     9    18    1
    18     9    10    1
    19    10    11    2
    20    10    12    1
    21    12    17   ar
    22    12    13   ar
    23    13    14   ar
    24    13    22    1
    25    14    15   ar
    26    14    32    1
    27    15    16   ar
    28    15    20    1
    29    16    17   ar
    30    16    19    1
    31    17    18    1
    32    20    21    1
    33    21    33    1
    34    21    34    1
    35    21    35    1
    36    22    23    1
    37    23    36    1
    38    23    37    1
    39    23    38    1
    40    24    25    1
    41    25    39    1
    42    25    40    1
    43    25    41    1
