@<TRIPOS>MOLECULE
ZINC03831507
 78 85 0 0 0
SMALL
GASTEIGER

@<TRIPOS>ATOM
      1 C          -4.8386    0.9056  -11.1882 C.3     1  UNL1        0.0790
      2 O          -3.7744   -0.0455  -11.2581 O.3     1  UNL1       -0.4913
      3 C          -3.0894   -0.2912  -10.1093 C.ar    1  UNL1        0.1653
      4 C          -3.4348    0.3696   -8.9401 C.ar    1  UNL1       -0.0123
      5 C          -2.7391    0.1206   -7.7719 C.ar    1  UNL1       -0.0320
      6 C          -1.6936   -0.7836   -7.7650 C.ar    1  UNL1       -0.0123
      7 C          -1.3458   -1.4531   -8.9285 C.ar    1  UNL1        0.1653
      8 C          -2.0425   -1.2052  -10.1053 C.ar    1  UNL1        0.2010
      9 O          -1.7007   -1.8562  -11.2505 O.3     1  UNL1       -0.5009
     10 O          -0.3209   -2.3469   -8.9193 O.3     1  UNL1       -0.4913
     11 C           0.3503   -2.5516   -7.6745 C.3     1  UNL1        0.0790
     12 C          -3.1176    0.8414   -6.5038 C.3     1  UNL1        0.0233
     13 H          -3.9623    1.5035   -6.6942 H       1  UNL1        0.0405
     14 C          -3.4863   -0.1675   -5.4299 C.ar    1  UNL1       -0.0298
     15 C          -4.2663   -1.2487   -5.8447 C.ar    1  UNL1       -0.0120
     16 C          -4.6170   -2.1974   -4.8996 C.ar    1  UNL1        0.1665
     17 C          -4.1985   -2.0730   -3.5656 C.ar    1  UNL1        0.1666
     18 C          -3.4282   -0.9964   -3.1609 C.ar    1  UNL1       -0.0102
     19 C          -3.0822   -0.0409   -4.1187 C.ar    1  UNL1       -0.0109
     20 C          -2.2478    1.1275   -3.6242 C.3     1  UNL1        0.0938
     21 H          -1.2033    0.8271   -3.5420 H       1  UNL1        0.0651
     22 C          -2.3800    2.2543   -4.6314 C.3     1  UNL1        0.0375
     23 H          -3.3940    2.6529   -4.6628 H       1  UNL1        0.0370
     24 C          -1.9382    1.6475   -6.0013 C.3     1  UNL1        0.0758
     25 H          -1.0605    1.0140   -5.8723 H       1  UNL1        0.0427
     26 C          -1.5828    2.8797   -6.7794 C.2     1  UNL1        0.3116
     27 O          -1.6366    2.9981   -7.9806 O.2     1  UNL1       -0.2505
     28 O          -1.1920    3.8365   -5.9052 O.3     1  UNL1       -0.4640
     29 C          -1.3279    3.3679   -4.5104 C.3     1  UNL1        0.0987
     30 O          -2.7283    1.5595   -2.3497 O.3     1  UNL1       -0.3404
     31 C          -1.7790    1.4152   -1.2913 C.3     1  UNL1        0.1886
     32 H          -1.3642    0.4074   -1.3123 H       1  UNL1        0.0938
     33 C          -2.4751    1.6498    0.0505 C.3     1  UNL1        0.1341
     34 H          -3.2321    0.8810    0.2057 H       1  UNL1        0.0671
     35 C          -1.4447    1.5878    1.1848 C.3     1  UNL1        0.1144
     36 H          -1.0104    0.5891    1.2310 H       1  UNL1        0.0648
     37 C          -0.3472    2.6125    0.8979 C.3     1  UNL1        0.1187
     38 H          -0.7811    3.6120    0.8684 H       1  UNL1        0.0651
     39 C           0.2828    2.2879   -0.4628 C.3     1  UNL1        0.1137
     40 H           0.6934    1.2785   -0.4409 H       1  UNL1        0.0647
     41 O          -0.7257    2.3684   -1.4674 O.3     1  UNL1       -0.3405
     42 C           1.4079    3.2896   -0.7261 C.3     1  UNL1        0.0798
     43 O           2.3280    3.2323    0.3713 O.3     1  UNL1       -0.3440
     44 C           1.7405    3.4899    1.6474 C.3     1  UNL1        0.1921
     45 H           1.3471    4.5063    1.6657 H       1  UNL1        0.0970
     46 O           0.6742    2.5663    1.8939 O.3     1  UNL1       -0.3382
     47 C           2.7889    3.3405    2.7196 C.ar    1  UNL1        0.0451
     48 C           3.9533    4.0168    2.8749 C.ar    1  UNL1       -0.0467
     49 C           4.7682    3.7106    3.9487 C.ar    1  UNL1       -0.0543
     50 C           4.3838    2.7358    4.8086 C.ar    1  UNL1       -0.0239
     51 S           2.8234    2.2216    4.1102 S.2     1  UNL1       -0.0966
     52 O          -2.0787    1.8982    2.4272 O.3     1  UNL1       -0.3864
     53 O          -3.0987    2.9355    0.0443 O.3     1  UNL1       -0.3841
     54 O          -4.6714   -3.1258   -2.8606 O.3     1  UNL1       -0.4526
     55 C          -5.0586   -4.1071   -3.8449 C.3     1  UNL1        0.2332
     56 O          -5.3520   -3.3259   -5.0219 O.3     1  UNL1       -0.4526
     57 H          -5.5841    0.5646  -10.4699 H       1  UNL1        0.0660
     58 H          -4.4431    1.8706  -10.8709 H       1  UNL1        0.0660
     59 H          -5.3002    1.0073  -12.1704 H       1  UNL1        0.0660
     60 H          -4.2482    1.0801   -8.9424 H       1  UNL1        0.0658
     61 H          -1.1494   -0.9718   -6.8513 H       1  UNL1        0.0658
     62 H          -1.0354   -1.3964  -11.7807 H       1  UNL1        0.2924
     63 H           1.1442   -3.2867   -7.8064 H       1  UNL1        0.0660
     64 H           0.7802   -1.6095   -7.3343 H       1  UNL1        0.0660
     65 H          -0.3616   -2.9147   -6.9333 H       1  UNL1        0.0660
     66 H          -4.5867   -1.3419   -6.8719 H       1  UNL1        0.0658
     67 H          -3.1043   -0.8985   -2.1353 H       1  UNL1        0.0659
     68 H          -1.6844    4.1659   -3.8591 H       1  UNL1        0.0701
     69 H          -0.3817    2.9665   -4.1476 H       1  UNL1        0.0701
     70 H           1.9226    3.0291   -1.6509 H       1  UNL1        0.0588
     71 H           0.9937    4.2946   -0.8068 H       1  UNL1        0.0588
     72 H           4.2388    4.7853    2.1719 H       1  UNL1        0.0627
     73 H           5.6993    4.2370    4.0977 H       1  UNL1        0.0623
     74 H           4.8901    2.3664    5.6881 H       1  UNL1        0.0693
     75 H          -2.7867    1.2864    2.6711 H       1  UNL1        0.2100
     76 H          -3.7637    3.0468   -0.6489 H       1  UNL1        0.2101
     77 H          -4.2378   -4.7975   -4.0394 H       1  UNL1        0.1166
     78 H          -5.9450   -4.6493   -3.5155 H       1  UNL1        0.1166
@<TRIPOS>BOND
     1     1     2    1
     2     1    57    1
     3     1    58    1
     4     1    59    1
     5     2     3    1
     6     3     8   ar
     7     3     4   ar
     8     4     5   ar
     9     4    60    1
    10     5     6   ar
    11     5    12    1
    12     6     7   ar
    13     6    61    1
    14     7     8   ar
    15     7    10    1
    16     8     9    1
    17     9    62    1
    18    10    11    1
    19    11    63    1
    20    11    64    1
    21    11    65    1
    22    12    13    1
    23    12    24    1
    24    12    14    1
    25    14    19   ar
    26    14    15   ar
    27    15    16   ar
    28    15    66    1
    29    16    56    1
    30    16    17   ar
    31    17    18   ar
    32    17    54    1
    33    18    19   ar
    34    18    67    1
    35    19    20    1
    36    20    21    1
    37    20    22    1
    38    20    30    1
    39    22    23    1
    40    22    29    1
    41    22    24    1
    42    24    25    1
    43    24    26    1
    44    26    27    2
    45    26    28    1
    46    28    29    1
    47    29    68    1
    48    29    69    1
    49    30    31    1
    50    31    32    1
    51    31    41    1
    52    31    33    1
    53    33    34    1
    54    33    35    1
    55    33    53    1
    56    35    36    1
    57    35    37    1
    58    35    52    1
    59    37    38    1
    60    37    46    1
    61    37    39    1
    62    39    40    1
    63    39    41    1
    64    39    42    1
    65    42    43    1
    66    42    70    1
    67    42    71    1
    68    43    44    1
    69    44    45    1
    70    44    46    1
    71    44    47    1
    72    47    51   ar
    73    47    48   ar
    74    48    49   ar
    75    48    72    1
    76    49    50   ar
    77    49    73    1
    78    50    51   ar
    79    50    74    1
    80    52    75    1
    81    53    76    1
    82    54    55    1
    83    55    56    1
    84    55    77    1
    85    55    78    1
