@<TRIPOS>MOLECULE
ZINC04198844
 96 102 0 0 0
SMALL
GASTEIGER

@<TRIPOS>ATOM
      1 C           2.1163    2.2439    6.7287 C.3     1  UNL1       -0.0409
      2 N           0.9283    2.9512    7.2249 N.4     1  UNL1        0.2449
      3 C           1.0676    3.1239    8.6667 C.3     1  UNL1       -0.0259
      4 C          -0.1152    3.9801    9.1557 C.3     1  UNL1        0.0133
      5 C          -1.3506    3.1568    8.8790 C.ar    1  UNL1       -0.0302
      6 C          -2.4571    3.2781    9.6929 C.ar    1  UNL1       -0.0125
      7 C          -3.5396    2.4361    9.5265 C.ar    1  UNL1        0.1624
      8 C          -3.4942    1.4449    8.5410 C.ar    1  UNL1        0.1704
      9 C          -2.4331    1.4284    7.6505 C.ar    1  UNL1       -0.0069
     10 C          -1.3555    2.2995    7.7981 C.ar    1  UNL1        0.0076
     11 C          -0.2456    2.2233    6.7947 C.3     1  UNL1        0.0107
     12 H          -0.0017    1.1731    6.6100 H       1  UNL1        0.0908
     13 C          -0.7362    2.8257    5.4642 C.3     1  UNL1        0.0200
     14 C          -1.5094    1.7688    4.7207 C.ar    1  UNL1       -0.0415
     15 C          -2.3764    2.1297    3.7065 C.ar    1  UNL1       -0.0549
     16 C          -3.1142    1.1638    3.0465 C.ar    1  UNL1       -0.0191
     17 C          -2.9878   -0.1675    3.4051 C.ar    1  UNL1        0.1286
     18 C          -2.0881   -0.5248    4.4095 C.ar    1  UNL1       -0.0191
     19 C          -1.3553    0.4380    5.0641 C.ar    1  UNL1       -0.0549
     20 O          -3.6836   -1.1567    2.8255 O.3     1  UNL1       -0.4517
     21 C          -4.5769   -1.0199    1.8306 C.ar    1  UNL1        0.1822
     22 C          -5.9202   -1.3169    2.1016 C.ar    1  UNL1        0.0499
     23 C          -6.7717   -1.5227    1.0409 C.ar    1  UNL1       -0.0266
     24 C          -6.3702   -1.2683   -0.2556 C.ar    1  UNL1       -0.0122
     25 C          -5.0814   -0.8300   -0.5140 C.ar    1  UNL1        0.1655
     26 C          -4.1832   -0.7201    0.5407 C.ar    1  UNL1        0.2046
     27 O          -2.9050   -0.3196    0.3005 O.3     1  UNL1       -0.4885
     28 C          -1.9711   -1.3289   -0.0884 C.3     1  UNL1        0.0791
     29 O          -4.7011   -0.5125   -1.7805 O.3     1  UNL1       -0.4913
     30 C          -5.6846   -0.6531   -2.8077 C.3     1  UNL1        0.0790
     31 C          -8.1524   -2.0842    1.2927 C.3     1  UNL1        0.0135
     32 C          -8.0782   -2.8373    2.6310 C.3     1  UNL1       -0.0259
     33 N          -7.7098   -1.8747    3.6681 N.4     1  UNL1        0.2450
     34 C          -6.3497   -1.3836    3.5431 C.3     1  UNL1        0.0143
     35 H          -5.6636   -2.0004    4.1174 H       1  UNL1        0.0909
     36 C          -6.2917    0.0540    4.0883 C.3     1  UNL1        0.0202
     37 C          -6.4358    0.0369    5.5892 C.ar    1  UNL1       -0.0380
     38 C          -7.6699   -0.2116    6.1621 C.ar    1  UNL1       -0.0547
     39 C          -7.8119   -0.2059    7.5366 C.ar    1  UNL1       -0.0160
     40 C          -6.7115    0.0384    8.3404 C.ar    1  UNL1        0.1621
     41 C          -5.4577    0.2707    7.7662 C.ar    1  UNL1        0.1702
     42 C          -5.3338    0.2826    6.3883 C.ar    1  UNL1       -0.0123
     43 O          -4.3952    0.4471    8.5688 O.3     1  UNL1       -0.4487
     44 O          -6.8502    0.0522    9.6931 O.3     1  UNL1       -0.4914
     45 C          -8.1583   -0.1925   10.2137 C.3     1  UNL1        0.0790
     46 C          -8.6310   -0.7325    3.5989 C.3     1  UNL1       -0.0409
     47 C          -7.8598   -2.5165    4.9809 C.3     1  UNL1       -0.0409
     48 O          -4.6401    2.5702   10.3140 O.3     1  UNL1       -0.4914
     49 C          -4.6114    3.6062   11.2979 C.3     1  UNL1        0.0790
     50 C           0.8967    4.2832    6.6062 C.3     1  UNL1       -0.0409
     51 H           2.0832    2.1972    5.6402 H       1  UNL1        0.0778
     52 H           3.0139    2.7768    7.0424 H       1  UNL1        0.0778
     53 H           2.1334    1.2327    7.1354 H       1  UNL1        0.0778
     54 H           1.0475    2.1514    9.1585 H       1  UNL1        0.0818
     55 H           2.0067    3.6309    8.8885 H       1  UNL1        0.0818
     56 H          -0.0233    4.1745   10.2243 H       1  UNL1        0.0365
     57 H          -0.1556    4.9182    8.6023 H       1  UNL1        0.0365
     58 H          -2.4776    4.0346   10.4633 H       1  UNL1        0.0658
     59 H          -2.4413    0.7288    6.8278 H       1  UNL1        0.0660
     60 H           0.1189    3.1429    4.8674 H       1  UNL1        0.0372
     61 H          -1.3820    3.6808    5.6637 H       1  UNL1        0.0372
     62 H          -2.4781    3.1685    3.4289 H       1  UNL1        0.0621
     63 H          -3.7881    1.4478    2.2518 H       1  UNL1        0.0654
     64 H          -1.9661   -1.5645    4.6752 H       1  UNL1        0.0654
     65 H          -0.6627    0.1558    5.8432 H       1  UNL1        0.0621
     66 H          -7.0633   -1.4119   -1.0713 H       1  UNL1        0.0658
     67 H          -1.0157   -0.8649   -0.3334 H       1  UNL1        0.0660
     68 H          -1.8334   -2.0323    0.7328 H       1  UNL1        0.0660
     69 H          -2.3518   -1.8593   -0.9612 H       1  UNL1        0.0660
     70 H          -5.2518   -0.3681   -3.7666 H       1  UNL1        0.0660
     71 H          -6.0171   -1.6902   -2.8529 H       1  UNL1        0.0660
     72 H          -6.5352   -0.0082   -2.5869 H       1  UNL1        0.0660
     73 H          -8.8788   -1.2743    1.3594 H       1  UNL1        0.0365
     74 H          -8.4284   -2.7708    0.4923 H       1  UNL1        0.0365
     75 H          -9.0492   -3.2751    2.8622 H       1  UNL1        0.0818
     76 H          -7.3239   -3.6219    2.5713 H       1  UNL1        0.0818
     77 H          -5.3340    0.5017    3.8229 H       1  UNL1        0.0372
     78 H          -7.0958    0.6406    3.6438 H       1  UNL1        0.0372
     79 H          -8.5252   -0.4103    5.5333 H       1  UNL1        0.0621
     80 H          -8.7781   -0.3912    7.9823 H       1  UNL1        0.0655
     81 H          -4.3745    0.4850    5.9355 H       1  UNL1        0.0658
     82 H          -8.8456    0.5670    9.8411 H       1  UNL1        0.0660
     83 H          -8.4979   -1.1778    9.8945 H       1  UNL1        0.0660
     84 H          -8.1292   -0.1534   11.3026 H       1  UNL1        0.0660
     85 H          -9.6221   -1.0446    3.9280 H       1  UNL1        0.0778
     86 H          -8.2683    0.0665    4.2456 H       1  UNL1        0.0778
     87 H          -8.6861   -0.3718    2.5718 H       1  UNL1        0.0778
     88 H          -7.6180   -3.5760    4.8971 H       1  UNL1        0.0778
     89 H          -7.1847   -2.0451    5.6951 H       1  UNL1        0.0778
     90 H          -8.8882   -2.4046    5.3246 H       1  UNL1        0.0778
     91 H          -5.5480    3.6038   11.8555 H       1  UNL1        0.0660
     92 H          -3.7807    3.4344   11.9823 H       1  UNL1        0.0660
     93 H          -4.4837    4.5707   10.8063 H       1  UNL1        0.0660
     94 H          -0.0881    4.7275    6.7503 H       1  UNL1        0.0778
     95 H           1.6527    4.9171    7.0697 H       1  UNL1        0.0778
     96 H           1.1022    4.1933    5.5395 H       1  UNL1        0.0778
@<TRIPOS>UNITY_ATOM_ATTR
2 1
charge 1
33 1
charge 1
@<TRIPOS>BOND
     1     1     2    1
     2     1    51    1
     3     1    52    1
     4     1    53    1
     5     2    11    1
     6     2     3    1
     7     2    50    1
     8     3     4    1
     9     3    54    1
    10     3    55    1
    11     4     5    1
    12     4    56    1
    13     4    57    1
    14     5    10   ar
    15     5     6   ar
    16     6     7   ar
    17     6    58    1
    18     7     8   ar
    19     7    48    1
    20     8    43    1
    21     8     9   ar
    22     9    10   ar
    23     9    59    1
    24    10    11    1
    25    11    12    1
    26    11    13    1
    27    13    14    1
    28    13    60    1
    29    13    61    1
    30    14    19   ar
    31    14    15   ar
    32    15    16   ar
    33    15    62    1
    34    16    17   ar
    35    16    63    1
    36    17    18   ar
    37    17    20    1
    38    18    19   ar
    39    18    64    1
    40    19    65    1
    41    20    21    1
    42    21    26   ar
    43    21    22   ar
    44    22    34    1
    45    22    23   ar
    46    23    24   ar
    47    23    31    1
    48    24    25   ar
    49    24    66    1
    50    25    26   ar
    51    25    29    1
    52    26    27    1
    53    27    28    1
    54    28    67    1
    55    28    68    1
    56    28    69    1
    57    29    30    1
    58    30    70    1
    59    30    71    1
    60    30    72    1
    61    31    32    1
    62    31    73    1
    63    31    74    1
    64    32    33    1
    65    32    75    1
    66    32    76    1
    67    33    34    1
    68    33    46    1
    69    33    47    1
    70    34    35    1
    71    34    36    1
    72    36    37    1
    73    36    77    1
    74    36    78    1
    75    37    42   ar
    76    37    38   ar
    77    38    39   ar
    78    38    79    1
    79    39    40   ar
    80    39    80    1
    81    40    41   ar
    82    40    44    1
    83    41    42   ar
    84    41    43    1
    85    42    81    1
    86    44    45    1
    87    45    82    1
    88    45    83    1
    89    45    84    1
    90    46    85    1
    91    46    86    1
    92    46    87    1
    93    47    88    1
    94    47    89    1
    95    47    90    1
    96    48    49    1
    97    49    91    1
    98    49    92    1
    99    49    93    1
   100    50    94    1
   101    50    95    1
   102    50    96    1
