@<TRIPOS>MOLECULE
ZINC03830746
 77 81 0 0 0
SMALL
GASTEIGER

@<TRIPOS>ATOM
      1 C          -2.0035   -4.0853    2.8233 C.3     1  UNL1       -0.0648
      2 C          -2.1621   -3.0519    1.7061 C.3     1  UNL1       -0.0480
      3 C          -3.4632   -2.2738    1.9121 C.3     1  UNL1        0.0022
      4 H          -3.4722   -1.8386    2.9114 H       1  UNL1        0.0355
      5 C          -4.6551   -3.2220    1.7572 C.3     1  UNL1       -0.0282
      6 C          -5.7001   -4.8062    0.2451 C.3     1  UNL1       -0.0272
      7 C          -5.4148   -5.6048   -1.0271 C.3     1  UNL1        0.0133
      8 C          -5.1806   -4.6676   -2.1842 C.ar    1  UNL1       -0.0302
      9 C          -5.2593   -5.1774   -3.4720 C.ar    1  UNL1       -0.0125
     10 C          -5.0465   -4.3560   -4.5643 C.ar    1  UNL1        0.1618
     11 C          -4.7512   -3.0100   -4.3670 C.ar    1  UNL1        0.1620
     12 C          -4.6753   -2.5062   -3.0812 C.ar    1  UNL1       -0.0075
     13 C          -4.8918   -3.3334   -1.9881 C.ar    1  UNL1        0.0072
     14 C          -4.8036   -2.7367   -0.6095 C.3     1  UNL1        0.0056
     15 H          -5.7154   -2.1751   -0.4066 H       1  UNL1        0.0904
     16 C          -3.6143   -1.7771   -0.5317 C.3     1  UNL1       -0.0018
     17 C          -3.5614   -1.1580    0.8685 C.3     1  UNL1       -0.0226
     18 H          -4.4658   -0.5751    1.0430 H       1  UNL1        0.0309
     19 C          -2.3373   -0.2468    0.9782 C.3     1  UNL1       -0.0019
     20 C          -2.4945    0.9360    0.0205 C.3     1  UNL1        0.0039
     21 H          -2.6797    0.5615   -0.9862 H       1  UNL1        0.0904
     22 C          -1.2262    1.7489    0.0174 C.ar    1  UNL1        0.0071
     23 C          -0.0126    1.0758    0.0080 C.ar    1  UNL1       -0.0075
     24 C           1.1782    1.7793    0.0004 C.ar    1  UNL1        0.1620
     25 C           1.1574    3.1711    0.0087 C.ar    1  UNL1        0.1618
     26 C          -0.0545    3.8377    0.0265 C.ar    1  UNL1       -0.0125
     27 C          -1.2461    3.1273    0.0349 C.ar    1  UNL1       -0.0302
     28 C          -2.5406    3.8993    0.0599 C.3     1  UNL1        0.0132
     29 C          -3.6988    2.9903   -0.3519 C.3     1  UNL1       -0.0290
     30 O           2.3228    3.8720   -0.0002 O.3     1  UNL1       -0.4914
     31 C           2.2226    5.2975    0.0093 C.3     1  UNL1        0.0790
     32 O           2.3643    1.1141   -0.0147 O.3     1  UNL1       -0.4914
     33 C           2.3073   -0.3137   -0.0221 C.3     1  UNL1        0.0790
     34 O          -4.5377   -2.1941   -5.4339 O.3     1  UNL1       -0.4914
     35 C          -4.2396   -0.8249   -5.1540 C.3     1  UNL1        0.0790
     36 O          -5.1257   -4.8606   -5.8247 O.3     1  UNL1       -0.4914
     37 C          -5.4333   -6.2506   -5.9488 C.3     1  UNL1        0.0790
     38 H          -1.9741   -3.5768    3.7870 H       1  UNL1        0.0230
     39 H          -2.8469   -4.7755    2.8022 H       1  UNL1        0.0230
     40 H          -1.0766   -4.6396    2.6765 H       1  UNL1        0.0230
     41 H          -2.1915   -3.5604    0.7424 H       1  UNL1        0.0267
     42 H          -1.3187   -2.3617    1.7272 H       1  UNL1        0.0267
     43 H          -4.5759   -4.0280    2.4867 H       1  UNL1        0.0817
     44 H          -5.5815   -2.6718    1.9223 H       1  UNL1        0.0817
     45 H          -5.6915   -5.4743    1.1063 H       1  UNL1        0.0818
     46 H          -6.6737   -4.3229    0.1633 H       1  UNL1        0.0818
     47 H          -6.2667   -6.2476   -1.2492 H       1  UNL1        0.0365
     48 H          -4.5279   -6.2198   -0.8747 H       1  UNL1        0.0365
     49 H          -5.4886   -6.2220   -3.6226 H       1  UNL1        0.0658
     50 H          -4.4469   -1.4620   -2.9268 H       1  UNL1        0.0660
     51 H          -3.7324   -0.9883   -1.2747 H       1  UNL1        0.0326
     52 H          -2.6915   -2.3247   -0.7232 H       1  UNL1        0.0326
     53 H          -1.4410   -0.8093    0.7167 H       1  UNL1        0.0326
     54 H          -2.2495    0.1222    2.0000 H       1  UNL1        0.0326
     55 H           0.0021   -0.0041    0.0020 H       1  UNL1        0.0660
     56 H          -0.0732    4.9175    0.0344 H       1  UNL1        0.0658
     57 H          -2.7173    4.2768    1.0671 H       1  UNL1        0.0365
     58 H          -2.4757    4.7372   -0.6343 H       1  UNL1        0.0365
     59 H          -4.6458    3.4966   -0.1655 H       1  UNL1        0.0817
     60 H          -3.6134    2.7451   -1.4105 H       1  UNL1        0.0817
     61 H           3.2222    5.7321    0.0007 H       1  UNL1        0.0660
     62 H           1.6747    5.6290   -0.8728 H       1  UNL1        0.0660
     63 H           1.6945    5.6187    0.9071 H       1  UNL1        0.0660
     64 H           3.3196   -0.7177   -0.0341 H       1  UNL1        0.0660
     65 H           1.7880   -0.6612    0.8710 H       1  UNL1        0.0660
     66 H           1.7708   -0.6514   -0.9088 H       1  UNL1        0.0660
     67 H          -3.3315   -0.7660   -4.5540 H       1  UNL1        0.0660
     68 H          -4.0920   -0.2865   -6.0902 H       1  UNL1        0.0660
     69 H          -5.0678   -0.3777   -4.6044 H       1  UNL1        0.0660
     70 H          -4.6660   -6.8389   -5.4455 H       1  UNL1        0.0660
     71 H          -6.4025   -6.4505   -5.4918 H       1  UNL1        0.0660
     72 H          -5.4660   -6.5227   -7.0038 H       1  UNL1        0.0660
     73 N          -4.6285   -3.7995    0.3944 N.4     1  UNL1        0.2411
     74 H          -3.7203   -4.2543    0.2442 H       1  UNL1        0.2040
     75 N          -3.6351    1.7557    0.4522 N.4     1  UNL1        0.2327
     76 H          -3.5229    2.0001    1.4431 H       1  UNL1        0.2020
     77 H          -4.5038    1.2228    0.3273 H       1  UNL1        0.2020
@<TRIPOS>UNITY_ATOM_ATTR
73 1
charge 1
75 1
charge 1
@<TRIPOS>BOND
     1     1     2    1
     2     1    38    1
     3     1    39    1
     4     1    40    1
     5     2     3    1
     6     2    41    1
     7     2    42    1
     8     3     4    1
     9     3    17    1
    10     3     5    1
    11     5    43    1
    12     5    44    1
    13     5    73    1
    14     6     7    1
    15     6    45    1
    16     6    46    1
    17     6    73    1
    18     7     8    1
    19     7    47    1
    20     7    48    1
    21     8    13   ar
    22     8     9   ar
    23     9    10   ar
    24     9    49    1
    25    10    11   ar
    26    10    36    1
    27    11    12   ar
    28    11    34    1
    29    12    13   ar
    30    12    50    1
    31    13    14    1
    32    14    15    1
    33    14    16    1
    34    14    73    1
    35    16    17    1
    36    16    51    1
    37    16    52    1
    38    17    18    1
    39    17    19    1
    40    19    20    1
    41    19    53    1
    42    19    54    1
    43    20    21    1
    44    20    22    1
    45    20    75    1
    46    22    27   ar
    47    22    23   ar
    48    23    24   ar
    49    23    55    1
    50    24    25   ar
    51    24    32    1
    52    25    26   ar
    53    25    30    1
    54    26    27   ar
    55    26    56    1
    56    27    28    1
    57    28    29    1
    58    28    57    1
    59    28    58    1
    60    29    59    1
    61    29    60    1
    62    29    75    1
    63    30    31    1
    64    31    61    1
    65    31    62    1
    66    31    63    1
    67    32    33    1
    68    33    64    1
    69    33    65    1
    70    33    66    1
    71    34    35    1
    72    35    67    1
    73    35    68    1
    74    35    69    1
    75    36    37    1
    76    37    70    1
    77    37    71    1
    78    37    72    1
    79    73    74    1
    80    75    76    1
    81    75    77    1
