@<TRIPOS>MOLECULE
ZINC11592804
 43 43 0 0 0
SMALL
GASTEIGER

@<TRIPOS>ATOM
      1 C          -2.1700    1.4261   -4.2605 C.3     1  UNL1        0.0122
      2 C          -2.0995    0.6227   -2.9874 C.2     1  UNL1        0.2104
      3 O          -1.6903   -0.5187   -3.0124 O.2     1  UNL1       -0.2761
      4 N          -2.4911    1.1727   -1.8209 N.am    1  UNL1       -0.3054
      5 C          -2.4225    0.3918   -0.5833 C.3     1  UNL1        0.0995
      6 H          -2.6585   -0.6514   -0.7935 H       1  UNL1        0.0574
      7 C          -1.0151    0.4929    0.0142 C.3     1  UNL1        0.1194
      8 H          -0.3226   -0.0982   -0.5851 H       1  UNL1        0.0759
      9 C          -1.0308   -0.0305    1.4248 C.2     1  UNL1       -0.0022
     10 C          -2.1533   -0.1727    2.1142 C.2     1  UNL1        0.1428
     11 O          -3.3736    0.1313    1.6096 O.2     1  UNL1       -0.4826
     12 C          -3.4202    0.9523    0.4393 C.3     1  UNL1        0.1501
     13 H          -3.1463    1.9753    0.6972 H       1  UNL1        0.0780
     14 C          -4.8315    0.9289   -0.1510 C.3     1  UNL1        0.1217
     15 H          -4.8810    1.6086   -1.0016 H       1  UNL1        0.0658
     16 C          -5.8372    1.3708    0.9141 C.3     1  UNL1        0.1075
     17 H          -5.7879    0.6910    1.7646 H       1  UNL1        0.0643
     18 C          -7.2485    1.3474    0.3237 C.3     1  UNL1        0.0727
     19 O          -8.1985    1.6470    1.3484 O.3     1  UNL1       -0.3924
     20 O          -5.5230    2.6966    1.3449 O.3     1  UNL1       -0.3868
     21 O          -5.1458   -0.3969   -0.5819 O.3     1  UNL1       -0.3854
     22 C          -2.0707   -0.6851    3.4933 C.2     1  UNL1        0.1061
     23 O          -0.9904   -0.9664    3.9733 O.co2   1  UNL1       -0.5416
     24 N          -0.5855    1.8935    0.0177 N.pl3   1  UNL1       -0.2705
     25 C           0.7543    2.2015    0.0066 C.cat   1  UNL1        0.3415
     26 N           1.6909    1.1952   -0.0078 N.pl3   1  UNL1       -0.2918
     27 H          -1.2305    1.9591   -4.4062 H       1  UNL1        0.0322
     28 H          -2.3426    0.7568   -5.1032 H       1  UNL1        0.0322
     29 H          -2.9880    2.1434   -4.1926 H       1  UNL1        0.0322
     30 H          -2.8184    2.0857   -1.8008 H       1  UNL1        0.1492
     31 H          -0.0947   -0.2996    1.8914 H       1  UNL1        0.0644
     32 H          -7.3230    2.0913   -0.4695 H       1  UNL1        0.0584
     33 H          -7.4550    0.3583   -0.0851 H       1  UNL1        0.0584
     34 H          -9.1167    1.6497    1.0449 H       1  UNL1        0.2095
     35 H          -5.5477    3.3561    0.6381 H       1  UNL1        0.2100
     36 H          -5.1211   -1.0563    0.1249 H       1  UNL1        0.2101
     37 H          -1.2463    2.6035    0.0239 H       1  UNL1        0.2584
     38 H           2.0586    3.7659    0.0027 H       1  UNL1        0.2545
     39 H           1.4065    0.2679   -0.0100 H       1  UNL1        0.2545
     40 H           2.6362    1.4126   -0.0156 H       1  UNL1        0.2545
     41 O          -3.1935   -0.8418    4.2223 O.co2   1  UNL1       -0.5416
     42 N           1.0775    3.4866    0.0104 N.pl3   1  UNL1       -0.2918
     43 H           0.3404    4.2013    0.0212 H       1  UNL1        0.2545
@<TRIPOS>UNITY_ATOM_ATTR
41 1
charge -1
42 1
charge 1
@<TRIPOS>BOND
     1     1     2    1
     2     1    27    1
     3     1    28    1
     4     1    29    1
     5     2     3    2
     6     2     4   am
     7     4     5    1
     8     4    30    1
     9     5     6    1
    10     5    12    1
    11     5     7    1
    12     7     8    1
    13     7     9    1
    14     7    24    1
    15     9    10    2
    16     9    31    1
    17    10    11    1
    18    10    22    1
    19    11    12    1
    20    12    13    1
    21    12    14    1
    22    14    15    1
    23    14    16    1
    24    14    21    1
    25    16    17    1
    26    16    18    1
    27    16    20    1
    28    18    19    1
    29    18    32    1
    30    18    33    1
    31    19    34    1
    32    20    35    1
    33    21    36    1
    34    22    23   ar
    35    22    41   ar
    36    24    25    1
    37    24    37    1
    38    25    26    1
    39    25    42    2
    40    26    39    1
    41    26    40    1
    42    38    42    1
    43    42    43    1
