@<TRIPOS>MOLECULE
ZINC03831517
 57 60 0 0 0
SMALL
GASTEIGER

@<TRIPOS>ATOM
      1 C          -1.1246   -2.0500   -0.7566 C.3     1  UNL1       -0.0313
      2 C          -1.0576   -0.5217   -0.7822 C.3     1  UNL1        0.0959
      3 C          -2.3639    0.0426   -0.2894 C.ar    1  UNL1       -0.0015
      4 C          -3.5185   -0.7062   -0.3640 C.ar    1  UNL1       -0.0549
      5 C          -4.7181   -0.1847    0.0922 C.ar    1  UNL1       -0.0579
      6 C          -4.7719    1.0885    0.6251 C.ar    1  UNL1       -0.0194
      7 C          -3.6192    1.8564    0.7074 C.ar    1  UNL1        0.1280
      8 C          -2.4064    1.3312    0.2475 C.ar    1  UNL1        0.0693
      9 C          -1.1643    2.1281    0.3243 C.2     1  UNL1        0.1967
     10 O          -1.2072    3.3362    0.4721 O.2     1  UNL1       -0.2867
     11 C           0.0868    1.4491    0.2208 C.2     1  UNL1        0.0466
     12 C           1.2120    2.1772    0.2149 C.2     1  UNL1        0.1409
     13 C           2.5713    1.5865    0.0144 C.3     1  UNL1        0.1935
     14 C           2.5434    0.0898    0.3507 C.3     1  UNL1        0.0531
     15 H           2.3570   -0.0391    1.4169 H       1  UNL1        0.0397
     16 C           1.4120   -0.5599   -0.4464 C.3     1  UNL1       -0.0311
     17 C           0.0838   -0.0496    0.1132 C.3     1  UNL1        0.0244
     18 H          -0.0586   -0.4697    1.1089 H       1  UNL1        0.0382
     19 C           3.8945   -0.5211   -0.0066 C.3     1  UNL1        0.0441
     20 H           4.0377   -0.4747   -1.0861 H       1  UNL1        0.0939
     21 C           5.0020    0.2337    0.6761 C.2     1  UNL1        0.1579
     22 C           4.8546    1.5244    1.1232 C.2     1  UNL1        0.1248
     23 C           3.5780    2.2295    0.9429 C.2     1  UNL1        0.2108
     24 O           3.3425    3.2757    1.5114 O.2     1  UNL1       -0.2882
     25 C           5.9798    2.2037    1.7850 C.2     1  UNL1        0.2485
     26 O           6.0215    2.2694    2.9989 O.2     1  UNL1       -0.2702
     27 N           6.9641    2.7530    1.0462 N.am    1  UNL1       -0.3252
     28 O           6.1818   -0.3784    0.8560 O.2     1  UNL1       -0.5050
     29 C           5.0576   -2.6378   -0.1775 C.3     1  UNL1       -0.0427
     30 C           3.9586   -2.0239    1.8908 C.3     1  UNL1       -0.0427
     31 O           2.9919    1.7627   -1.3399 O.3     1  UNL1       -0.3731
     32 O           1.1094    3.5137    0.3568 O.2     1  UNL1       -0.5073
     33 O          -3.6677    3.1077    1.2297 O.3     1  UNL1       -0.5060
     34 O          -0.8245   -0.0793   -2.1209 O.3     1  UNL1       -0.3836
     35 H          -1.2990   -2.3890    0.2645 H       1  UNL1        0.0261
     36 H          -1.9398   -2.3887   -1.3961 H       1  UNL1        0.0261
     37 H          -0.1829   -2.4611   -1.1201 H       1  UNL1        0.0261
     38 H          -3.4879   -1.7026   -0.7793 H       1  UNL1        0.0621
     39 H          -5.6183   -0.7784    0.0308 H       1  UNL1        0.0619
     40 H          -5.7117    1.4864    0.9782 H       1  UNL1        0.0654
     41 H           1.4634   -1.6436   -0.3423 H       1  UNL1        0.0278
     42 H           1.4977   -0.2867   -1.4982 H       1  UNL1        0.0278
     43 H           6.9690    2.6386    0.0829 H       1  UNL1        0.1453
     44 H           7.6676    3.2627    1.4776 H       1  UNL1        0.1453
     45 H           6.8129    0.2438    1.3193 H       1  UNL1        0.2919
     46 H           5.9908   -2.2372    0.2184 H       1  UNL1        0.0778
     47 H           4.9877   -3.6991    0.0610 H       1  UNL1        0.0778
     48 H           5.0356   -2.5063   -1.2593 H       1  UNL1        0.0778
     49 H           3.1082   -1.4874    2.3117 H       1  UNL1        0.0778
     50 H           3.9089   -3.0721    2.1854 H       1  UNL1        0.0778
     51 H           4.8848   -1.5855    2.2626 H       1  UNL1        0.0778
     52 H           3.0328    2.6867   -1.6220 H       1  UNL1        0.2113
     53 H           2.0218    3.9224    0.3337 H       1  UNL1        0.2918
     54 H          -3.8440    3.7995    0.5775 H       1  UNL1        0.2922
     55 H          -1.5118   -0.3436   -2.7478 H       1  UNL1        0.2106
     56 N           3.8995   -1.9373    0.4165 N.4     1  UNL1        0.2388
     57 H           3.0353   -2.3859    0.0904 H       1  UNL1        0.2035
@<TRIPOS>UNITY_ATOM_ATTR
56 1
charge 1
@<TRIPOS>BOND
     1     1     2    1
     2     1    35    1
     3     1    36    1
     4     1    37    1
     5     2    17    1
     6     2     3    1
     7     2    34    1
     8     3     8   ar
     9     3     4   ar
    10     4     5   ar
    11     4    38    1
    12     5     6   ar
    13     5    39    1
    14     6     7   ar
    15     6    40    1
    16     7     8   ar
    17     7    33    1
    18     8     9    1
    19     9    10    2
    20     9    11    1
    21    11    17    1
    22    11    12    2
    23    12    13    1
    24    12    32    1
    25    13    23    1
    26    13    14    1
    27    13    31    1
    28    14    15    1
    29    14    16    1
    30    14    19    1
    31    16    17    1
    32    16    41    1
    33    16    42    1
    34    17    18    1
    35    19    20    1
    36    19    21    1
    37    19    56    1
    38    21    22    2
    39    21    28    1
    40    22    23    1
    41    22    25    1
    42    23    24    2
    43    25    26    2
    44    25    27   am
    45    27    43    1
    46    27    44    1
    47    28    45    1
    48    29    46    1
    49    29    47    1
    50    29    48    1
    51    29    56    1
    52    30    49    1
    53    30    50    1
    54    30    51    1
    55    30    56    1
    56    31    52    1
    57    32    53    1
    58    33    54    1
    59    34    55    1
    60    56    57    1
