@<TRIPOS>MOLECULE
ZINC07997952
 43 44 0 0 0
SMALL
GASTEIGER

@<TRIPOS>ATOM
      1 C           1.3196   -2.6612    0.2740 C.3     1  UNL1       -0.0259
      2 C           0.5555   -1.9004    1.3595 C.3     1  UNL1        0.1333
      3 C          -0.8831   -2.3492    1.3695 C.ar    1  UNL1       -0.0103
      4 C          -1.8831   -1.4573    1.7093 C.ar    1  UNL1       -0.0555
      5 C          -3.2030   -1.8678    1.7142 C.ar    1  UNL1       -0.0614
      6 C          -3.5223   -3.1727    1.3881 C.ar    1  UNL1       -0.0617
      7 C          -2.5218   -4.0660    1.0533 C.ar    1  UNL1       -0.0614
      8 C          -1.2022   -3.6543    1.0443 C.ar    1  UNL1       -0.0555
      9 C           1.1785   -2.1809    2.7027 C.ar    1  UNL1        0.0771
     10 C           2.4852   -1.7993    2.9428 C.ar    1  UNL1       -0.0372
     11 C           3.0469   -2.0566    4.1838 C.ar    1  UNL1       -0.0585
     12 C           2.2736   -2.7014    5.1373 C.ar    1  UNL1       -0.0436
     13 C           0.9762   -3.0585    4.8231 C.ar    1  UNL1        0.0280
     14 N           0.4726   -2.7924    3.6335 N.ar    1  UNL1       -0.2566
     15 O           0.6152   -0.4983    1.0902 O.3     1  UNL1       -0.3576
     16 C           0.1706   -0.1385   -0.2193 C.3     1  UNL1        0.0891
     17 C           0.1487    1.3858   -0.3496 C.3     1  UNL1       -0.0084
     18 C           2.3337    1.4690   -1.3894 C.3     1  UNL1       -0.0433
     19 C           1.5189    3.3700   -0.1305 C.3     1  UNL1       -0.0433
     20 H           2.3601   -2.3366    0.2668 H       1  UNL1        0.0265
     21 H           1.2740   -3.7307    0.4794 H       1  UNL1        0.0265
     22 H           0.8689   -2.4583   -0.6975 H       1  UNL1        0.0265
     23 H          -1.6333   -0.4388    1.9677 H       1  UNL1        0.0621
     24 H          -3.9847   -1.1698    1.9754 H       1  UNL1        0.0618
     25 H          -4.5533   -3.4941    1.3945 H       1  UNL1        0.0618
     26 H          -2.7712   -5.0854    0.7986 H       1  UNL1        0.0618
     27 H          -0.4206   -4.3522    0.7827 H       1  UNL1        0.0621
     28 H           3.0598   -1.3030    2.1747 H       1  UNL1        0.0636
     29 H           4.0641   -1.7661    4.4012 H       1  UNL1        0.0619
     30 H           2.6801   -2.9214    6.1134 H       1  UNL1        0.0633
     31 H           0.3675   -3.5609    5.5602 H       1  UNL1        0.0829
     32 H          -0.8328   -0.5316   -0.3832 H       1  UNL1        0.0614
     33 H           0.8504   -0.5569   -0.9615 H       1  UNL1        0.0614
     34 H          -0.2738    1.6618   -1.3157 H       1  UNL1        0.0837
     35 H          -0.4610    1.8099    0.4482 H       1  UNL1        0.0837
     36 H           1.8888    1.8352   -2.3147 H       1  UNL1        0.0777
     37 H           3.3432    1.8678   -1.2890 H       1  UNL1        0.0777
     38 H           2.3739    0.3800   -1.4118 H       1  UNL1        0.0777
     39 H           0.9668    3.6629    0.7625 H       1  UNL1        0.0777
     40 H           2.5457    3.7285   -0.0567 H       1  UNL1        0.0777
     41 H           1.0445    3.8050   -1.0101 H       1  UNL1        0.0777
     42 N           1.5306    1.8949   -0.2240 N.4     1  UNL1        0.2325
     43 H           1.9515    1.5100    0.6298 H       1  UNL1        0.2028
@<TRIPOS>UNITY_ATOM_ATTR
42 1
charge 1
@<TRIPOS>BOND
     1     1     2    1
     2     1    20    1
     3     1    21    1
     4     1    22    1
     5     2     3    1
     6     2     9    1
     7     2    15    1
     8     3     8   ar
     9     3     4   ar
    10     4     5   ar
    11     4    23    1
    12     5     6   ar
    13     5    24    1
    14     6     7   ar
    15     6    25    1
    16     7     8   ar
    17     7    26    1
    18     8    27    1
    19     9    14   ar
    20     9    10   ar
    21    10    11   ar
    22    10    28    1
    23    11    12   ar
    24    11    29    1
    25    12    13   ar
    26    12    30    1
    27    13    14   ar
    28    13    31    1
    29    15    16    1
    30    16    17    1
    31    16    32    1
    32    16    33    1
    33    17    34    1
    34    17    35    1
    35    17    42    1
    36    18    36    1
    37    18    37    1
    38    18    38    1
    39    18    42    1
    40    19    39    1
    41    19    40    1
    42    19    41    1
    43    19    42    1
    44    42    43    1
