@<TRIPOS>MOLECULE
ZINC00001920
 32 33 0 0 0
SMALL
GASTEIGER

@<TRIPOS>ATOM
      1 C          -2.1339    0.9882    1.3271 C.3     1  UNL1       -0.0188
      2 C          -0.7244    1.5805    1.2700 C.3     1  UNL1        0.0071
      3 H          -0.7866    2.6685    1.2500 H       1  UNL1        0.0877
      4 C          -0.0127    1.0858    0.0080 C.3     1  UNL1        0.1260
      5 H           0.0021   -0.0041    0.0020 H       1  UNL1        0.0703
      6 O           1.3287    1.5817   -0.0021 O.3     1  UNL1       -0.3611
      7 C           2.0978    1.1848    1.1364 C.3     1  UNL1        0.0886
      8 C           1.4075    1.6805    2.4098 C.3     1  UNL1       -0.0078
      9 C          -0.6447    1.5606    3.6909 C.3     1  UNL1       -0.0427
     10 C          -0.7433    1.5859   -1.2115 C.ar    1  UNL1       -0.0135
     11 C          -0.4764    2.8481   -1.7079 C.ar    1  UNL1       -0.0559
     12 C          -1.1431    3.3050   -2.8294 C.ar    1  UNL1       -0.0614
     13 C          -2.0838    2.5034   -3.4486 C.ar    1  UNL1       -0.0617
     14 C          -2.3548    1.2434   -2.9489 C.ar    1  UNL1       -0.0614
     15 C          -1.6844    0.7845   -1.8304 C.ar    1  UNL1       -0.0559
     16 H          -2.0703   -0.0997    1.3490 H       1  UNL1        0.0285
     17 H          -2.6401    1.3407    2.2258 H       1  UNL1        0.0285
     18 H          -2.6956    1.3016    0.4471 H       1  UNL1        0.0285
     19 H           2.1740    0.0978    1.1632 H       1  UNL1        0.0614
     20 H           3.0959    1.6180    1.0704 H       1  UNL1        0.0614
     21 H           1.9596    1.3315    3.2825 H       1  UNL1        0.0837
     22 H           1.3801    2.7701    2.4084 H       1  UNL1        0.0837
     23 H          -0.6242    2.6470    3.7765 H       1  UNL1        0.0778
     24 H          -1.6791    1.2176    3.6662 H       1  UNL1        0.0778
     25 H          -0.1358    1.1189    4.5476 H       1  UNL1        0.0778
     26 H           0.2556    3.4759   -1.2217 H       1  UNL1        0.0621
     27 H          -0.9316    4.2895   -3.2196 H       1  UNL1        0.0618
     28 H          -2.6074    2.8618   -4.3226 H       1  UNL1        0.0618
     29 H          -3.0900    0.6173   -3.4324 H       1  UNL1        0.0618
     30 H          -1.8961   -0.1999   -1.4400 H       1  UNL1        0.0621
     31 N           0.0379    1.1270    2.4526 N.4     1  UNL1        0.2387
     32 H           0.0915    0.1017    2.4426 H       1  UNL1        0.2035
@<TRIPOS>UNITY_ATOM_ATTR
31 1
charge 1
@<TRIPOS>BOND
     1     1     2    1
     2     1    16    1
     3     1    17    1
     4     1    18    1
     5     2     3    1
     6     2     4    1
     7     2    31    1
     8     4     5    1
     9     4     6    1
    10     4    10    1
    11     6     7    1
    12     7     8    1
    13     7    19    1
    14     7    20    1
    15     8    21    1
    16     8    22    1
    17     8    31    1
    18     9    23    1
    19     9    24    1
    20     9    25    1
    21     9    31    1
    22    10    15   ar
    23    10    11   ar
    24    11    12   ar
    25    11    26    1
    26    12    13   ar
    27    12    27    1
    28    13    14   ar
    29    13    28    1
    30    14    15   ar
    31    14    29    1
    32    15    30    1
    33    31    32    1
