@<TRIPOS>MOLECULE
ZINC03830470
 58 61 0 0 0
SMALL
GASTEIGER

@<TRIPOS>ATOM
      1 C           3.9765    3.2941   -7.6544 C.3     1  UNL1       -0.0172
      2 C           2.6988    2.7002   -8.2508 C.3     1  UNL1        0.1718
      3 C           2.6578    1.1961   -7.9735 C.3     1  UNL1       -0.0172
      4 C           2.6816    2.9374   -9.7389 C.2     1  UNL1        0.0871
      5 O           1.7861    3.5763  -10.2385 O.co2   1  UNL1       -0.5457
      6 O           1.5599    3.3255   -7.6556 O.2     1  UNL1       -0.3812
      7 N           1.4810    3.1615   -6.2514 N.2     1  UNL1       -0.0767
      8 C           0.4885    3.6846   -5.5892 C.2     1  UNL1        0.1898
      9 C          -0.4752    4.5696   -6.2782 C.ar    1  UNL1        0.1067
     10 C          -0.4952    4.6417   -7.6455 C.ar    1  UNL1        0.0067
     11 S          -1.8123    5.8239   -7.8981 S.2     1  UNL1       -0.0604
     12 C          -2.2011    6.1014   -6.1760 C.ar    1  UNL1        0.1562
     13 N          -1.3387    5.3026   -5.5766 N.ar    1  UNL1       -0.2233
     14 N          -3.1591    6.9311   -5.6179 N.pl3   1  UNL1       -0.3375
     15 C           0.3253    3.3928   -4.1455 C.2     1  UNL1        0.2684
     16 O          -0.6005    3.8807   -3.5279 O.2     1  UNL1       -0.2683
     17 N           1.2036    2.5862   -3.5175 N.am    1  UNL1       -0.2963
     18 CA          1.0423    2.2977   -2.0903 C.3     1  UNL1        0.1286
     19 HA          0.5060    3.0842   -1.5594 H       1  UNL1        0.0622
     20 C           2.3383    1.8890   -1.4095 C.3     1  UNL1        0.1041
     21 H           2.4945    2.2792   -0.4038 H       1  UNL1        0.0644
     22 N           1.7443    0.5207   -1.5168 N.am    1  UNL1       -0.2532
     23 C           0.4974    0.9132   -1.8178 C.2     1  UNL1        0.2438
     24 O          -0.5944    0.3862   -1.8550 O.2     1  UNL1       -0.2731
     25 CA          2.4476   -0.6956   -1.4145 C.2     1  UNL1        0.0658
     26 C           3.7578   -0.7333   -1.5917 C.2     1  UNL1        0.0277
     27 C           4.6926    0.4012   -1.8591 C.3     1  UNL1        0.0246
     28 S           3.8149    1.8688   -2.4813 S.3     1  UNL1       -0.1309
     29 C           4.3903   -2.0989   -1.5144 C.3     1  UNL1        0.1747
     30 N           4.4184   -2.5458   -0.1195 N.ar    1  UNL1       -0.1998
     31 C           5.2075   -1.9273    0.7371 C.ar    1  UNL1        0.1715
     32 C           5.2569   -2.3180    2.0619 C.ar    1  UNL1        0.0021
     33 C           4.4711   -3.3799    2.4829 C.ar    1  UNL1       -0.0506
     34 C           3.6581   -4.0088    1.5524 C.ar    1  UNL1        0.0021
     35 C           3.6580   -3.5595    0.2454 C.ar    1  UNL1        0.1715
     36 C           1.7166   -1.9380   -1.1064 C.2     1  UNL1        0.0861
     37 O           0.8697   -1.9445   -0.2352 O.co2   1  UNL1       -0.5433
     38 H           3.9889    3.1226   -6.5780 H       1  UNL1        0.0273
     39 H           4.8451    2.8171   -8.1083 H       1  UNL1        0.0273
     40 H           4.0057    4.3656   -7.8519 H       1  UNL1        0.0273
     41 H           1.7475    0.7730   -8.3984 H       1  UNL1        0.0273
     42 H           3.5264    0.7192   -8.4275 H       1  UNL1        0.0273
     43 H           2.6701    1.0246   -6.8972 H       1  UNL1        0.0273
     44 H           0.1164    4.1264   -8.3714 H       1  UNL1        0.0716
     45 H          -3.7323    7.4640   -6.1909 H       1  UNL1        0.1442
     46 H          -3.2569    6.9794   -4.6541 H       1  UNL1        0.1442
     47 H           1.9426    2.1967   -4.0106 H       1  UNL1        0.1499
     48 H           5.2086    0.6614   -0.9349 H       1  UNL1        0.0425
     49 H           5.4282    0.0882   -2.6000 H       1  UNL1        0.0425
     50 H           3.8088   -2.8029   -2.1098 H       1  UNL1        0.1083
     51 H           5.4083   -2.0503   -1.9009 H       1  UNL1        0.1083
     52 H           5.8194   -1.1036    0.4003 H       1  UNL1        0.1376
     53 H           5.9019   -1.8046    2.7596 H       1  UNL1        0.0677
     54 H           4.4916   -3.7091    3.5113 H       1  UNL1        0.0621
     55 H           3.0326   -4.8391    1.8453 H       1  UNL1        0.0677
     56 H           3.0275   -4.0440   -0.4855 H       1  UNL1        0.1376
     57 O           3.6613    2.4388  -10.5093 O.co2   1  UNL1       -0.5457
     58 OXT         1.9875   -3.0668   -1.7912 O.co2   1  UNL1       -0.5433
@<TRIPOS>UNITY_ATOM_ATTR
30 1
charge 1
57 1
charge -1
58 1
charge -1
@<TRIPOS>BOND
     1     1     2    1
     2     1    38    1
     3     1    39    1
     4     1    40    1
     5     2     3    1
     6     2     4    1
     7     2     6    1
     8     3    41    1
     9     3    42    1
    10     3    43    1
    11     4     5   ar
    12     4    57   ar
    13     6     7    1
    14     7     8    2
    15     8     9    1
    16     8    15    1
    17     9    13   ar
    18     9    10   ar
    19    10    11   ar
    20    10    44    1
    21    11    12   ar
    22    12    13   ar
    23    12    14    1
    24    14    45    1
    25    14    46    1
    26    15    16    2
    27    15    17   am
    28    17    18    1
    29    17    47    1
    30    18    19    1
    31    18    23    1
    32    18    20    1
    33    20    21    1
    34    20    28    1
    35    20    22    1
    36    22    23   am
    37    22    25    1
    38    23    24    2
    39    25    26    2
    40    25    36    1
    41    26    27    1
    42    26    29    1
    43    27    28    1
    44    27    48    1
    45    27    49    1
    46    29    30    1
    47    29    50    1
    48    29    51    1
    49    30    35   ar
    50    30    31   ar
    51    31    32   ar
    52    31    52    1
    53    32    33   ar
    54    32    53    1
    55    33    34   ar
    56    33    54    1
    57    34    35   ar
    58    34    55    1
    59    35    56    1
    60    36    37   ar
    61    36    58   ar
