@<TRIPOS>MOLECULE
ZINC11681515
 69 74 0 0 0
SMALL
GASTEIGER

@<TRIPOS>ATOM
      1 C           5.7046    4.8224    8.2310 C.3     1  UNL1       -0.0561
      2 C           4.4061    4.3448    7.5778 C.3     1  UNL1       -0.0139
      3 C           3.2598    4.3255    8.5971 C.3     1  UNL1       -0.0429
      4 C           1.9646    3.8978    7.9031 C.3     1  UNL1       -0.0329
      5 C           2.2422    3.6301    6.4183 C.3     1  UNL1        0.0858
      6 C           3.2630    2.4884    6.3165 C.3     1  UNL1       -0.0329
      7 C           4.5712    2.9280    7.0108 C.3     1  UNL1       -0.0429
      8 C           2.8688    4.8845    5.8275 C.2     1  UNL1       -0.0708
      9 C           3.9952    5.2564    6.4311 C.2     1  UNL1       -0.0810
     10 C           0.9700    3.2755    5.6925 C.2     1  UNL1        0.3174
     11 O          -0.0774    3.2353    6.2936 O.2     1  UNL1       -0.2499
     12 O           1.0003    3.0044    4.3782 O.3     1  UNL1       -0.4602
     13 C          -0.2628    2.6706    3.7446 C.3     1  UNL1        0.1087
     14 H          -0.9352    2.2116    4.4694 H       1  UNL1        0.0739
     15 C          -0.9092    3.9363    3.1508 C.3     1  UNL1       -0.0149
     16 C          -1.0817    3.6752    1.6365 C.3     1  UNL1       -0.0460
     17 C          -1.0967    2.1387    1.5390 C.3     1  UNL1       -0.0290
     18 H          -2.0703    1.7749    1.8674 H       1  UNL1        0.0310
     19 C          -0.0230    1.7044    2.5528 C.3     1  UNL1        0.0081
     20 C           1.3828    2.0028    2.0271 C.3     1  UNL1       -0.0437
     21 C           1.5893    1.4066    0.6366 C.3     1  UNL1       -0.0488
     22 C           0.5775    2.0497   -0.3159 C.3     1  UNL1       -0.0314
     23 H           0.6761    3.1336   -0.2565 H       1  UNL1        0.0309
     24 C          -0.8245    1.6440    0.1344 C.3     1  UNL1       -0.0339
     25 H          -1.5600    2.0840   -0.5391 H       1  UNL1        0.0307
     26 C          -0.9513    0.1173    0.0940 C.3     1  UNL1       -0.0460
     27 C          -0.8095   -0.3643   -1.3509 C.3     1  UNL1       -0.0308
     28 C           0.5084    0.1436   -1.9067 C.2     1  UNL1       -0.0629
     29 C           1.3032   -0.7324   -2.5202 C.2     1  UNL1       -0.0197
     30 C           2.5812   -0.2910   -3.0896 C.2     1  UNL1        0.1561
     31 O           3.4856   -1.0695   -3.3087 O.2     1  UNL1       -0.2927
     32 C           2.7124    1.1896   -3.3891 C.3     1  UNL1        0.0104
     33 C           2.2641    1.9501   -2.1418 C.3     1  UNL1       -0.0392
     34 C           0.8402    1.5958   -1.7505 C.3     1  UNL1       -0.0160
     35 H           0.1668    2.1632   -2.3929 H       1  UNL1        0.0349
     36 C          -0.1692    0.2398    2.9702 C.3     1  UNL1       -0.0559
     37 H           5.9702    4.1494    9.0462 H       1  UNL1        0.0238
     38 H           6.5036    4.8280    7.4895 H       1  UNL1        0.0238
     39 H           5.5652    5.8301    8.6224 H       1  UNL1        0.0238
     40 H           3.1331    5.3221    9.0199 H       1  UNL1        0.0274
     41 H           3.4947    3.6201    9.3941 H       1  UNL1        0.0274
     42 H           1.2234    4.6914    7.9966 H       1  UNL1        0.0279
     43 H           1.5848    2.9895    8.3709 H       1  UNL1        0.0279
     44 H           2.8646    1.6003    6.8071 H       1  UNL1        0.0279
     45 H           3.4570    2.2671    5.2670 H       1  UNL1        0.0279
     46 H           5.3894    2.9181    6.2907 H       1  UNL1        0.0274
     47 H           4.7937    2.2356    7.8227 H       1  UNL1        0.0274
     48 H           2.4337    5.4291    5.0026 H       1  UNL1        0.0580
     49 H           4.5643    6.1252    6.1349 H       1  UNL1        0.0575
     50 H          -1.8809    4.1111    3.6127 H       1  UNL1        0.0301
     51 H          -0.2599    4.7971    3.3105 H       1  UNL1        0.0301
     52 H          -2.0235    4.0920    1.2796 H       1  UNL1        0.0269
     53 H          -0.2430    4.0898    1.0771 H       1  UNL1        0.0269
     54 H           2.1177    1.5778    2.7109 H       1  UNL1        0.0272
     55 H           1.5233    3.0825    1.9776 H       1  UNL1        0.0272
     56 H           1.4283    0.3291    0.6710 H       1  UNL1        0.0268
     57 H           2.6022    1.6167    0.2933 H       1  UNL1        0.0268
     58 H          -0.1667   -0.3291    0.7049 H       1  UNL1        0.0271
     59 H          -1.9264   -0.1771    0.4821 H       1  UNL1        0.0271
     60 H          -0.8211   -1.4539   -1.3758 H       1  UNL1        0.0310
     61 H          -1.6330    0.0261   -1.9488 H       1  UNL1        0.0310
     62 H           1.0063   -1.7678   -2.5987 H       1  UNL1        0.0652
     63 H           3.6645    1.4021   -3.6090 H       1  UNL1        0.0345
     64 H           2.0767    1.4542   -4.2341 H       1  UNL1        0.0345
     65 H           2.9318    1.7040   -1.3161 H       1  UNL1        0.0275
     66 H           2.3229    3.0207   -2.3378 H       1  UNL1        0.0275
     67 H           0.3580    0.0754    3.9100 H       1  UNL1        0.0236
     68 H          -1.2252    0.0026    3.0997 H       1  UNL1        0.0236
     69 H           0.2554   -0.4021    2.1984 H       1  UNL1        0.0236
@<TRIPOS>BOND
     1     1     2    1
     2     1    37    1
     3     1    38    1
     4     1    39    1
     5     2     7    1
     6     2     9    1
     7     2     3    1
     8     3     4    1
     9     3    40    1
    10     3    41    1
    11     4     5    1
    12     4    42    1
    13     4    43    1
    14     5     6    1
    15     5     8    1
    16     5    10    1
    17     6     7    1
    18     6    44    1
    19     6    45    1
    20     7    46    1
    21     7    47    1
    22     8     9    2
    23     8    48    1
    24     9    49    1
    25    10    11    2
    26    10    12    1
    27    12    13    1
    28    13    14    1
    29    13    19    1
    30    13    15    1
    31    15    16    1
    32    15    50    1
    33    15    51    1
    34    16    17    1
    35    16    52    1
    36    16    53    1
    37    17    18    1
    38    17    24    1
    39    17    19    1
    40    19    20    1
    41    19    36    1
    42    20    21    1
    43    20    54    1
    44    20    55    1
    45    21    22    1
    46    21    56    1
    47    21    57    1
    48    22    23    1
    49    22    34    1
    50    22    24    1
    51    24    25    1
    52    24    26    1
    53    26    27    1
    54    26    58    1
    55    26    59    1
    56    27    28    1
    57    27    60    1
    58    27    61    1
    59    28    34    1
    60    28    29    2
    61    29    30    1
    62    29    62    1
    63    30    31    2
    64    30    32    1
    65    32    33    1
    66    32    63    1
    67    32    64    1
    68    33    34    1
    69    33    65    1
    70    33    66    1
    71    34    35    1
    72    36    67    1
    73    36    68    1
    74    36    69    1
