@<TRIPOS>MOLECULE
ZINC03830467
 55 58 0 0 0
SMALL
GASTEIGER

@<TRIPOS>ATOM
      1 C          12.9488    3.4819   -3.0853 C.ar    1  UNL1       -0.0617
      2 C          12.1890    2.3348   -2.9523 C.ar    1  UNL1       -0.0614
      3 C          10.9262    2.4031   -2.3941 C.ar    1  UNL1       -0.0563
      4 C          10.4236    3.6184   -1.9682 C.ar    1  UNL1       -0.0156
      5 C          11.1815    4.7662   -2.1056 C.ar    1  UNL1       -0.0563
      6 C          12.4460    4.6972   -2.6598 C.ar    1  UNL1       -0.0614
      7 C           9.0469    3.6928   -1.3597 C.3     1  UNL1        0.1663
      8 H           8.6044    2.6969   -1.3391 H       1  UNL1        0.0673
      9 C           8.1817    4.6098   -2.1853 C.2     1  UNL1        0.2414
     10 O           8.6822    5.5347   -2.7894 O.2     1  UNL1       -0.2734
     11 N           6.8517    4.4021   -2.2523 N.am    1  UNL1       -0.2999
     12 CA          6.0106    5.2936   -3.0548 C.3     1  UNL1        0.1284
     13 HA          6.5627    5.8347   -3.8233 H       1  UNL1        0.0622
     14 C           4.7162    4.6662   -3.5383 C.3     1  UNL1        0.1041
     15 H           4.4346    4.9174   -4.5609 H       1  UNL1        0.0644
     16 N           3.9806    5.4184   -2.4862 N.am    1  UNL1       -0.2532
     17 C           5.0630    6.1499   -2.2483 C.2     1  UNL1        0.2438
     18 O           5.2332    7.1624   -1.6025 O.2     1  UNL1       -0.2731
     19 CA          2.6973    5.1513   -1.9889 C.2     1  UNL1        0.0658
     20 C           2.1448    3.9608   -2.1737 C.2     1  UNL1        0.0277
     21 C           2.6927    2.7956   -2.9317 C.3     1  UNL1        0.0246
     22 S           4.4984    2.9002   -3.1315 S.3     1  UNL1       -0.1309
     23 C           0.7902    3.7589   -1.5449 C.3     1  UNL1        0.1747
     24 N          -0.2536    4.0239   -2.5380 N.ar    1  UNL1       -0.1997
     25 C          -0.7967    3.0088   -3.1799 C.ar    1  UNL1        0.1722
     26 C          -1.7844    3.2131   -4.1240 C.ar    1  UNL1        0.0142
     27 C          -2.2005    4.5195   -4.3979 C.ar    1  UNL1        0.0476
     28 C          -1.6010    5.5651   -3.6892 C.ar    1  UNL1        0.0142
     29 C          -0.6208    5.2700   -2.7616 C.ar    1  UNL1        0.1722
     30 C          -3.2520    4.7879   -5.4065 C.2     1  UNL1        0.2419
     31 O          -3.7655    3.8660   -6.0090 O.2     1  UNL1       -0.2704
     32 N          -3.6390    6.0546   -5.6558 N.am    1  UNL1       -0.3253
     33 C           1.9621    6.1961   -1.2534 C.2     1  UNL1        0.0861
     34 O           1.6757    7.2401   -1.8051 O.co2   1  UNL1       -0.5433
     35 S           9.1676    4.3361    0.3321 S.3     1  UNL1       -0.0648
     36 O           7.8697    4.5806    0.8565 O.2     1  UNL1       -0.1843
     37 O          10.1192    3.5858    1.0743 O.2     1  UNL1       -0.1843
     38 H          13.9355    3.4286   -3.5214 H       1  UNL1        0.0618
     39 H          12.5818    1.3853   -3.2847 H       1  UNL1        0.0618
     40 H          10.3324    1.5069   -2.2905 H       1  UNL1        0.0621
     41 H          10.7871    5.7163   -1.7769 H       1  UNL1        0.0621
     42 H          13.0398    5.5934   -2.7634 H       1  UNL1        0.0618
     43 H           6.4514    3.6624   -1.7691 H       1  UNL1        0.1496
     44 H           2.4480    1.8780   -2.3967 H       1  UNL1        0.0425
     45 H           2.2284    2.7639   -3.9173 H       1  UNL1        0.0425
     46 H           0.6742    4.4432   -0.7044 H       1  UNL1        0.1083
     47 H           0.7032    2.7315   -1.1915 H       1  UNL1        0.1083
     48 H          -0.4654    2.0037   -2.9646 H       1  UNL1        0.1376
     49 H          -2.2252    2.3767   -4.6459 H       1  UNL1        0.0684
     50 H          -1.8967    6.5885   -3.8675 H       1  UNL1        0.0684
     51 H          -0.1486    6.0711   -2.2124 H       1  UNL1        0.1376
     52 H          -3.2291    6.7906   -5.1749 H       1  UNL1        0.1453
     53 H          -4.3274    6.2304   -6.3162 H       1  UNL1        0.1453
     54 OXT         1.6077    5.9932    0.0309 O.co2   1  UNL1       -0.5433
     55 O           9.7923    5.7158    0.1823 O.co2   1  UNL1       -0.7237
@<TRIPOS>UNITY_ATOM_ATTR
24 1
charge 1
54 1
charge -1
55 1
charge -1
@<TRIPOS>BOND
     1     1     6   ar
     2     1     2   ar
     3     1    38    1
     4     2     3   ar
     5     2    39    1
     6     3     4   ar
     7     3    40    1
     8     4     5   ar
     9     4     7    1
    10     5     6   ar
    11     5    41    1
    12     6    42    1
    13     7     8    1
    14     7     9    1
    15     7    35    1
    16     9    10    2
    17     9    11   am
    18    11    12    1
    19    11    43    1
    20    12    13    1
    21    12    17    1
    22    12    14    1
    23    14    15    1
    24    14    22    1
    25    14    16    1
    26    16    17   am
    27    16    19    1
    28    17    18    2
    29    19    20    2
    30    19    33    1
    31    20    21    1
    32    20    23    1
    33    21    22    1
    34    21    44    1
    35    21    45    1
    36    23    24    1
    37    23    46    1
    38    23    47    1
    39    24    29   ar
    40    24    25   ar
    41    25    26   ar
    42    25    48    1
    43    26    27   ar
    44    26    49    1
    45    27    28   ar
    46    27    30    1
    47    28    29   ar
    48    28    50    1
    49    29    51    1
    50    30    31    2
    51    30    32   am
    52    32    52    1
    53    32    53    1
    54    33    34   ar
    55    33    54   ar
    56    35    36    2
    57    35    37    2
    58    35    55    1
