@<TRIPOS>MOLECULE
ZINC01529270
 24 24 0 0 0
SMALL
GASTEIGER

@<TRIPOS>ATOM
      1 C           0.5275    5.4529    2.6577 C.3     1  UNL1        0.0730
      2 C           1.3341    4.3405    1.9848 C.3     1  UNL1        0.1134
      3 H           1.8574    3.7470    2.7345 H       1  UNL1        0.0647
      4 C           2.3431    4.9410    0.9738 C.3     1  UNL1        0.1144
      5 H           1.9151    5.7978    0.4535 H       1  UNL1        0.0648
      6 C           2.5425    3.7410    0.0083 C.3     1  UNL1        0.1392
      7 H           3.2938    3.0525    0.3952 H       1  UNL1        0.0675
      8 C           1.1449    3.0852    0.0077 C.3     1  UNL1        0.2205
      9 O           0.4701    3.5031    1.2001 O.3     1  UNL1       -0.3364
     10 C           1.2864    1.5618   -0.0018 C.3     1  UNL1        0.1006
     11 O          -0.0110    0.9628    0.0073 O.3     1  UNL1       -0.3896
     12 O           0.4083    3.5107   -1.1406 O.3     1  UNL1       -0.3608
     13 O           2.8921    4.1943   -1.3010 O.3     1  UNL1       -0.3837
     14 O           3.5692    5.2933    1.6176 O.3     1  UNL1       -0.3864
     15 O          -0.3593    4.8819    3.6219 O.3     1  UNL1       -0.3924
     16 H           1.2074    6.1451    3.1544 H       1  UNL1        0.0584
     17 H          -0.0506    5.9888    1.9049 H       1  UNL1        0.0584
     18 H           1.8401    1.2428    0.8812 H       1  UNL1        0.0612
     19 H           1.8231    1.2523   -0.8987 H       1  UNL1        0.0612
     20 H           0.0021   -0.0041    0.0020 H       1  UNL1        0.2096
     21 H          -0.4814    3.1362   -1.1981 H       1  UNL1        0.2129
     22 H           3.7618    4.6139   -1.3527 H       1  UNL1        0.2101
     23 H           3.4729    5.9649    2.3066 H       1  UNL1        0.2100
     24 H          -0.9034    5.5309    4.0886 H       1  UNL1        0.2095
@<TRIPOS>BOND
     1     1     2    1
     2     1    15    1
     3     1    16    1
     4     1    17    1
     5     2     3    1
     6     2     9    1
     7     2     4    1
     8     4     5    1
     9     4     6    1
    10     4    14    1
    11     6     7    1
    12     6     8    1
    13     6    13    1
    14     8     9    1
    15     8    10    1
    16     8    12    1
    17    10    11    1
    18    10    18    1
    19    10    19    1
    20    11    20    1
    21    12    21    1
    22    13    22    1
    23    14    23    1
    24    15    24    1
