@<TRIPOS>MOLECULE
ZINC11592779
 67 70 0 0 0
SMALL
GASTEIGER

@<TRIPOS>ATOM
      1 C           1.0410    2.5883   -3.6353 C.3     1  UNL1       -0.0587
      2 C           0.9360    3.0947   -2.1995 C.3     1  UNL1       -0.0212
      3 H           1.2173    4.1515   -2.1735 H       1  UNL1        0.0343
      4 C          -0.5044    2.9605   -1.6954 C.3     1  UNL1       -0.0432
      5 C          -0.7508    1.4941   -1.3664 C.3     1  UNL1       -0.0308
      6 H          -0.2855    0.8843   -2.1759 H       1  UNL1        0.0308
      7 C          -2.1874    1.0881   -1.3080 C.3     1  UNL1       -0.0292
      8 H          -2.2196   -0.0234   -1.3271 H       1  UNL1        0.0310
      9 C          -3.1305    1.5776   -2.4137 C.3     1  UNL1       -0.0463
     10 C          -4.5309    1.2306   -1.8319 C.3     1  UNL1       -0.0161
     11 C          -4.3516    1.1023   -0.2975 C.3     1  UNL1        0.1326
     12 C          -2.9120    1.5694   -0.0352 C.3     1  UNL1        0.0092
     13 C          -2.2117    0.9787    1.1634 C.3     1  UNL1       -0.0178
     14 C          -0.7524    1.4895    1.1874 C.3     1  UNL1        0.0600
     15 H          -0.7633    2.5579    1.3572 H       1  UNL1        0.0596
     16 C          -0.0121    1.1195   -0.0796 C.3     1  UNL1        0.0007
     17 H           0.0053    0.0023   -0.0852 H       1  UNL1        0.0340
     18 C           1.4394    1.5128   -0.1358 C.3     1  UNL1        0.0133
     19 C           1.8729    2.3295   -1.3077 C.2     1  UNL1       -0.0531
     20 C           3.1926    2.4340   -1.5790 C.2     1  UNL1       -0.0146
     21 C           4.1236    1.7285   -0.6616 C.2     1  UNL1        0.1787
     22 O           5.2042    2.1933   -0.3422 O.2     1  UNL1       -0.2879
     23 C           3.6439    0.4138   -0.1617 C.2     1  UNL1       -0.0180
     24 C           2.3254    0.3121    0.0740 C.2     1  UNL1       -0.0701
     25 C           1.7235    2.4192    1.0597 C.3     1  UNL1       -0.0520
     26 O          -0.1384    0.8372    2.3133 O.3     1  UNL1       -0.3914
     27 C          -2.9552    3.0959    0.0753 C.3     1  UNL1       -0.0562
     28 C          -4.5615   -0.3195    0.1395 C.2     1  UNL1        0.2022
     29 O          -3.6237   -1.0781    0.1971 O.2     1  UNL1       -0.2907
     30 C          -5.9424   -0.7991    0.5059 C.3     1  UNL1        0.1530
     31 O          -5.8825   -2.1978    0.8913 O.3     1  UNL1       -0.4568
     32 C          -7.0372   -2.7812    1.2493 C.2     1  UNL1        0.3078
     33 O          -8.0639   -2.1443    1.2409 O.2     1  UNL1       -0.2508
     34 C          -7.0529   -4.2306    1.6616 C.3     1  UNL1        0.0500
     35 C          -8.4824   -4.6441    2.0175 C.3     1  UNL1       -0.0031
     36 C          -8.4981   -6.0935    2.4298 C.2     1  UNL1        0.0423
     37 O          -7.4714   -6.7304    2.4382 O.co2   1  UNL1       -0.5498
     38 O          -5.2665    1.9701    0.3771 O.3     1  UNL1       -0.3804
     39 H           0.7792    1.5306   -3.6676 H       1  UNL1        0.0235
     40 H           0.3569    3.1514   -4.2701 H       1  UNL1        0.0235
     41 H           2.0618    2.7210   -3.9937 H       1  UNL1        0.0235
     42 H          -0.6076    3.5832   -0.8039 H       1  UNL1        0.0274
     43 H          -1.1924    3.3042   -2.4674 H       1  UNL1        0.0274
     44 H          -3.0316    2.6451   -2.5873 H       1  UNL1        0.0269
     45 H          -2.9551    1.0233   -3.3371 H       1  UNL1        0.0269
     46 H          -4.8793    0.2835   -2.2453 H       1  UNL1        0.0297
     47 H          -5.2403    2.0240   -2.0617 H       1  UNL1        0.0297
     48 H          -2.7099    1.2859    2.0848 H       1  UNL1        0.0297
     49 H          -2.1828   -0.1114    1.1080 H       1  UNL1        0.0297
     50 H           3.5602    3.0116   -2.4225 H       1  UNL1        0.0656
     51 H           4.3207   -0.4208   -0.0104 H       1  UNL1        0.0653
     52 H           1.8960   -0.6270    0.4146 H       1  UNL1        0.0582
     53 H           1.5133    1.8794    1.9830 H       1  UNL1        0.0241
     54 H           2.7707    2.7214    1.0458 H       1  UNL1        0.0241
     55 H           1.0893    3.3040    1.0037 H       1  UNL1        0.0241
     56 H          -0.5636    1.0308    3.1599 H       1  UNL1        0.2098
     57 H          -3.3737    3.5147   -0.8399 H       1  UNL1        0.0236
     58 H          -3.5776    3.3813    0.9233 H       1  UNL1        0.0236
     59 H          -1.9449    3.4784    0.2210 H       1  UNL1        0.0236
     60 H          -6.2915   -0.2573    1.2705 H       1  UNL1        0.0779
     61 H          -6.6056   -0.6866   -0.3517 H       1  UNL1        0.0779
     62 H          -6.6908   -4.8465    0.8384 H       1  UNL1        0.0381
     63 H          -6.4081   -4.3685    2.5295 H       1  UNL1        0.0381
     64 H          -8.8445   -4.0282    2.8407 H       1  UNL1        0.0330
     65 H          -9.1272   -4.5062    1.1496 H       1  UNL1        0.0330
     66 H          -6.1961    1.7335    0.2546 H       1  UNL1        0.2108
     67 O          -9.6528   -6.6769    2.7878 O.co2   1  UNL1       -0.5498
@<TRIPOS>UNITY_ATOM_ATTR
67 1
charge -1
@<TRIPOS>BOND
     1     1     2    1
     2     1    39    1
     3     1    40    1
     4     1    41    1
     5     2     3    1
     6     2    19    1
     7     2     4    1
     8     4     5    1
     9     4    42    1
    10     4    43    1
    11     5     6    1
    12     5    16    1
    13     5     7    1
    14     7     8    1
    15     7    12    1
    16     7     9    1
    17     9    10    1
    18     9    44    1
    19     9    45    1
    20    10    11    1
    21    10    46    1
    22    10    47    1
    23    11    12    1
    24    11    28    1
    25    11    38    1
    26    12    13    1
    27    12    27    1
    28    13    14    1
    29    13    48    1
    30    13    49    1
    31    14    15    1
    32    14    16    1
    33    14    26    1
    34    16    17    1
    35    16    18    1
    36    18    24    1
    37    18    19    1
    38    18    25    1
    39    19    20    2
    40    20    21    1
    41    20    50    1
    42    21    22    2
    43    21    23    1
    44    23    24    2
    45    23    51    1
    46    24    52    1
    47    25    53    1
    48    25    54    1
    49    25    55    1
    50    26    56    1
    51    27    57    1
    52    27    58    1
    53    27    59    1
    54    28    29    2
    55    28    30    1
    56    30    31    1
    57    30    60    1
    58    30    61    1
    59    31    32    1
    60    32    33    2
    61    32    34    1
    62    34    35    1
    63    34    62    1
    64    34    63    1
    65    35    36    1
    66    35    64    1
    67    35    65    1
    68    36    37   ar
    69    36    67   ar
    70    38    66    1
