@<TRIPOS>MOLECULE
ZINC03831219
 53 56 0 0 0
SMALL
GASTEIGER

@<TRIPOS>ATOM
      1 C          -1.2926   -0.7753    0.0102 C.3     1  UNL1        0.0333
      2 C           0.0021   -0.0041    0.0020 C.2     1  UNL1        0.3054
      3 O           1.0565   -0.5939   -0.0112 O.2     1  UNL1       -0.2511
      4 O          -0.0161    1.3381    0.0094 O.3     1  UNL1       -0.4447
      5 C           1.2642    2.0125    0.0008 C.3     1  UNL1        0.1784
      6 C           2.0547    1.6927    1.2937 C.3     1  UNL1       -0.0005
      7 C           1.9270    2.9405    2.2091 C.3     1  UNL1       -0.0447
      8 C           0.7909    3.7447    1.5587 C.3     1  UNL1       -0.0278
      9 H          -0.1635    3.2384    1.8087 H       1  UNL1        0.0310
     10 C           1.0691    3.5408    0.0562 C.3     1  UNL1        0.0223
     11 C          -0.0576    4.0686   -0.7991 C.3     1  UNL1       -0.0425
     12 C          -0.8327    5.1599   -0.0370 C.3     1  UNL1       -0.0487
     13 C           0.1600    6.0028    0.7484 C.3     1  UNL1       -0.0314
     14 H           0.9940    6.2743    0.1029 H       1  UNL1        0.0309
     15 C           0.6759    5.1841    1.9429 C.3     1  UNL1       -0.0339
     16 H          -0.0973    5.2550    2.7349 H       1  UNL1        0.0307
     17 C           1.9229    5.8629    2.4862 C.3     1  UNL1       -0.0460
     18 C           1.4862    7.2132    3.0771 C.3     1  UNL1       -0.0308
     19 C           0.6692    7.9938    2.0654 C.2     1  UNL1       -0.0629
     20 C           0.9876    9.2732    1.8776 C.2     1  UNL1       -0.0197
     21 C           0.2243   10.1179    0.9575 C.2     1  UNL1        0.1561
     22 O           0.6544   11.1911    0.5810 O.2     1  UNL1       -0.2927
     23 C          -1.1194    9.6001    0.4917 C.3     1  UNL1        0.0104
     24 C          -0.9729    8.1233    0.1422 C.3     1  UNL1       -0.0392
     25 C          -0.4321    7.3045    1.3007 C.3     1  UNL1       -0.0160
     26 H          -1.2431    7.0640    1.9811 H       1  UNL1        0.0349
     27 C           2.3957    4.1801   -0.3656 C.3     1  UNL1       -0.0547
     28 C           2.0458    1.6461   -1.1866 C.1     1  UNL1       -0.0576
     29 C           2.6709    1.3530   -2.1361 C.1     1  UNL1       -0.1152
     30 H          -2.1306   -0.0783    0.0220 H       1  UNL1        0.0342
     31 H          -1.3504   -1.3978   -0.8826 H       1  UNL1        0.0342
     32 H          -1.3334   -1.4074    0.8973 H       1  UNL1        0.0342
     33 H           1.6244    0.8222    1.7872 H       1  UNL1        0.0314
     34 H           3.1020    1.5099    1.0551 H       1  UNL1        0.0314
     35 H           1.6455    2.6374    3.2203 H       1  UNL1        0.0270
     36 H           2.8555    3.5042    2.2322 H       1  UNL1        0.0270
     37 H          -0.7420    3.2603   -1.0673 H       1  UNL1        0.0272
     38 H           0.3506    4.4961   -1.7214 H       1  UNL1        0.0272
     39 H          -1.5458    4.6953    0.6463 H       1  UNL1        0.0268
     40 H          -1.3732    5.7878   -0.7473 H       1  UNL1        0.0268
     41 H           2.3683    5.2521    3.2716 H       1  UNL1        0.0271
     42 H           2.6449    6.0328    1.6912 H       1  UNL1        0.0271
     43 H           0.8811    7.0338    3.9672 H       1  UNL1        0.0310
     44 H           2.3702    7.7874    3.3528 H       1  UNL1        0.0310
     45 H           1.8280    9.6940    2.4150 H       1  UNL1        0.0652
     46 H          -1.4134   10.1138   -0.3143 H       1  UNL1        0.0345
     47 H          -1.8586    9.7222    1.2865 H       1  UNL1        0.0345
     48 H          -0.2974    8.0220   -0.7078 H       1  UNL1        0.0275
     49 H          -1.9511    7.7280   -0.1393 H       1  UNL1        0.0275
     50 H           2.6344    3.8819   -1.3865 H       1  UNL1        0.0237
     51 H           2.3083    5.2654   -0.3151 H       1  UNL1        0.0237
     52 H           3.1885    3.8479    0.3047 H       1  UNL1        0.0237
     53 H           3.2300    1.0909   -2.9854 H       1  UNL1        0.1229
@<TRIPOS>BOND
     1     1     2    1
     2     1    30    1
     3     1    31    1
     4     1    32    1
     5     2     3    2
     6     2     4    1
     7     4     5    1
     8     5    10    1
     9     5     6    1
    10     5    28    1
    11     6     7    1
    12     6    33    1
    13     6    34    1
    14     7     8    1
    15     7    35    1
    16     7    36    1
    17     8     9    1
    18     8    15    1
    19     8    10    1
    20    10    11    1
    21    10    27    1
    22    11    12    1
    23    11    37    1
    24    11    38    1
    25    12    13    1
    26    12    39    1
    27    12    40    1
    28    13    14    1
    29    13    25    1
    30    13    15    1
    31    15    16    1
    32    15    17    1
    33    17    18    1
    34    17    41    1
    35    17    42    1
    36    18    19    1
    37    18    43    1
    38    18    44    1
    39    19    25    1
    40    19    20    2
    41    20    21    1
    42    20    45    1
    43    21    22    2
    44    21    23    1
    45    23    24    1
    46    23    46    1
    47    23    47    1
    48    24    25    1
    49    24    48    1
    50    24    49    1
    51    25    26    1
    52    27    50    1
    53    27    51    1
    54    27    52    1
    55    28    29    3
    56    29    53    1
