@<TRIPOS>MOLECULE
ZINC03831213
 52 55 0 0 0
SMALL
GASTEIGER

@<TRIPOS>ATOM
      1 C          -3.8033   -0.6292    1.2275 C.3     1  UNL1       -0.0627
      2 C          -2.5109   -0.0134    0.6875 C.3     1  UNL1       -0.0263
      3 C          -1.8639    0.8429    1.7717 C.3     1  UNL1        0.0715
      4 C          -2.8625    1.9168    2.2565 C.3     1  UNL1       -0.0232
      5 C          -2.0403    3.2160    2.3926 C.3     1  UNL1       -0.0467
      6 C          -0.9634    3.0870    1.2781 C.3     1  UNL1       -0.0298
      7 H          -0.0787    3.6972    1.5047 H       1  UNL1        0.0310
      8 C          -0.6223    1.5914    1.2889 C.3     1  UNL1       -0.0002
      9 C          -0.0127    1.0885    0.0080 C.3     1  UNL1       -0.0445
     10 C          -0.6577    1.6034   -1.2642 C.3     1  UNL1       -0.0488
     11 C          -0.7765    3.1306   -1.2320 C.3     1  UNL1       -0.0314
     12 H           0.2109    3.5821   -1.1645 H       1  UNL1        0.0309
     13 C          -1.6193    3.5366   -0.0274 C.3     1  UNL1       -0.0340
     14 H          -2.6113    3.0957   -0.1131 H       1  UNL1        0.0307
     15 C          -1.7467    5.0661    0.0056 C.3     1  UNL1       -0.0460
     16 C          -2.5355    5.5346   -1.2176 C.3     1  UNL1       -0.0308
     17 C          -1.8415    5.0191   -2.4649 C.2     1  UNL1       -0.0629
     18 C          -1.6075    5.8879   -3.4487 C.2     1  UNL1       -0.0197
     19 C          -0.9535    5.4398   -4.6833 C.2     1  UNL1        0.1561
     20 O          -0.3925    6.2158   -5.4275 O.2     1  UNL1       -0.2927
     21 C          -1.0159    3.9541   -4.9794 C.3     1  UNL1        0.0104
     22 C          -0.5771    3.2202   -3.7120 C.3     1  UNL1       -0.0392
     23 C          -1.4657    3.5723   -2.5309 C.3     1  UNL1       -0.0160
     24 H          -2.3874    2.9943   -2.6267 H       1  UNL1        0.0349
     25 C           0.4581    1.3969    2.3839 C.3     1  UNL1       -0.0567
     26 O          -1.5089    0.0031    2.8838 O.3     1  UNL1       -0.3880
     27 H          -4.2656   -1.2410    0.4529 H       1  UNL1        0.0231
     28 H          -3.5755   -1.2505    2.0936 H       1  UNL1        0.0231
     29 H          -4.4895    0.1653    1.5207 H       1  UNL1        0.0231
     30 H          -2.7387    0.6079   -0.1786 H       1  UNL1        0.0290
     31 H          -1.8248   -0.8080    0.3943 H       1  UNL1        0.0290
     32 H          -3.2793    1.6311    3.2210 H       1  UNL1        0.0293
     33 H          -3.6567    2.0471    1.5236 H       1  UNL1        0.0293
     34 H          -1.5779    3.2788    3.3770 H       1  UNL1        0.0269
     35 H          -2.6749    4.0859    2.2194 H       1  UNL1        0.0269
     36 H           0.0021   -0.0041    0.0020 H       1  UNL1        0.0272
     37 H           1.0477    1.4009   -0.0004 H       1  UNL1        0.0272
     38 H          -0.0249    1.3220   -2.1199 H       1  UNL1        0.0268
     39 H          -1.6391    1.1640   -1.4253 H       1  UNL1        0.0268
     40 H          -0.7516    5.5112   -0.0110 H       1  UNL1        0.0271
     41 H          -2.2664    5.3719    0.9120 H       1  UNL1        0.0271
     42 H          -2.5679    6.6237   -1.2383 H       1  UNL1        0.0310
     43 H          -3.5501    5.1385   -1.1727 H       1  UNL1        0.0310
     44 H          -1.8996    6.9215   -3.3374 H       1  UNL1        0.0652
     45 H          -1.9512    3.7029   -5.2287 H       1  UNL1        0.0345
     46 H          -0.3442    3.7095   -5.8013 H       1  UNL1        0.0345
     47 H           0.4506    3.4972   -3.4785 H       1  UNL1        0.0275
     48 H          -0.6272    2.1463   -3.8884 H       1  UNL1        0.0275
     49 H           1.3439    1.9781    2.1277 H       1  UNL1        0.0236
     50 H           0.0673    1.7343    3.3439 H       1  UNL1        0.0236
     51 H           0.7226    0.3415    2.4500 H       1  UNL1        0.0236
     52 H          -2.2558   -0.4741    3.2705 H       1  UNL1        0.2102
@<TRIPOS>BOND
     1     1     2    1
     2     1    27    1
     3     1    28    1
     4     1    29    1
     5     2     3    1
     6     2    30    1
     7     2    31    1
     8     3     8    1
     9     3     4    1
    10     3    26    1
    11     4     5    1
    12     4    32    1
    13     4    33    1
    14     5     6    1
    15     5    34    1
    16     5    35    1
    17     6     7    1
    18     6    13    1
    19     6     8    1
    20     8     9    1
    21     8    25    1
    22     9    10    1
    23     9    36    1
    24     9    37    1
    25    10    11    1
    26    10    38    1
    27    10    39    1
    28    11    12    1
    29    11    23    1
    30    11    13    1
    31    13    14    1
    32    13    15    1
    33    15    16    1
    34    15    40    1
    35    15    41    1
    36    16    17    1
    37    16    42    1
    38    16    43    1
    39    17    23    1
    40    17    18    2
    41    18    19    1
    42    18    44    1
    43    19    20    2
    44    19    21    1
    45    21    22    1
    46    21    45    1
    47    21    46    1
    48    22    23    1
    49    22    47    1
    50    22    48    1
    51    23    24    1
    52    25    49    1
    53    25    50    1
    54    25    51    1
    55    26    52    1
