@<TRIPOS>MOLECULE
ZINC03830877
 24 24 0 0 0
SMALL
GASTEIGER

@<TRIPOS>ATOM
      1 C           2.5186    3.4891    1.3583 C.3     1  UNL1        0.0730
      2 C           1.2146    3.0152    0.7133 C.3     1  UNL1        0.1134
      3 H           0.8494    3.7613    0.0076 H       1  UNL1        0.0647
      4 C           1.4310    1.6582   -0.0027 C.3     1  UNL1        0.1144
      5 H           1.7883    1.8038   -1.0221 H       1  UNL1        0.0648
      6 C          -0.0127    1.0858    0.0080 C.3     1  UNL1        0.1392
      7 H           0.0021   -0.0041    0.0020 H       1  UNL1        0.0675
      8 C          -0.5672    1.6204    1.3460 C.3     1  UNL1        0.2205
      9 O           0.2240    2.7542    1.7203 O.3     1  UNL1       -0.3364
     10 C          -2.0277    2.0416    1.1713 C.3     1  UNL1        0.1006
     11 O          -2.5330    2.5349    2.4136 O.3     1  UNL1       -0.3896
     12 O          -0.4697    0.6084    2.3501 O.3     1  UNL1       -0.3608
     13 O          -0.7671    1.5880   -1.0968 O.3     1  UNL1       -0.3837
     14 O           2.3222    0.8217    0.7375 O.3     1  UNL1       -0.3864
     15 O           2.3297    4.7928    1.9122 O.3     1  UNL1       -0.3924
     16 H           2.8054    2.7963    2.1494 H       1  UNL1        0.0584
     17 H           3.3048    3.5251    0.6043 H       1  UNL1        0.0584
     18 H          -2.0921    2.8249    0.4161 H       1  UNL1        0.0612
     19 H          -2.6183    1.1820    0.8545 H       1  UNL1        0.0612
     20 H          -3.4561    2.8208    2.3770 H       1  UNL1        0.2096
     21 H          -0.8019    0.8807    3.2165 H       1  UNL1        0.2129
     22 H          -0.4289    1.3149   -1.9606 H       1  UNL1        0.2101
     23 H           3.2350    1.1403    0.7579 H       1  UNL1        0.2100
     24 H           3.1175    5.1569    2.3386 H       1  UNL1        0.2095
@<TRIPOS>BOND
     1     1     2    1
     2     1    15    1
     3     1    16    1
     4     1    17    1
     5     2     3    1
     6     2     9    1
     7     2     4    1
     8     4     5    1
     9     4     6    1
    10     4    14    1
    11     6     7    1
    12     6     8    1
    13     6    13    1
    14     8     9    1
    15     8    10    1
    16     8    12    1
    17    10    11    1
    18    10    18    1
    19    10    19    1
    20    11    20    1
    21    12    21    1
    22    13    22    1
    23    14    23    1
    24    15    24    1
