@<TRIPOS>MOLECULE
ZINC03606295
 20 20 0 0 0
SMALL
GASTEIGER

@<TRIPOS>ATOM
      1 C           3.3154    1.6820   -1.2748 C.3     1  UNL1        0.0792
      2 C           3.2556    3.2112   -1.3164 C.3     1  UNL1        0.1069
      3 H           4.2674    3.6156   -1.3462 H       1  UNL1        0.0643
      4 C           2.5374    3.7206   -0.0630 C.3     1  UNL1        0.1137
      5 H           3.1095    3.4442    0.8227 H       1  UNL1        0.0647
      6 C           1.1450    3.0861    0.0077 C.3     1  UNL1        0.1339
      7 H           0.5563    3.4027   -0.8533 H       1  UNL1        0.0671
      8 C           1.2864    1.5618   -0.0018 C.3     1  UNL1        0.1850
      9 H           1.8403    1.2425    0.8809 H       1  UNL1        0.0935
     10 O           1.9897    1.1573   -1.1782 O.3     1  UNL1       -0.3462
     11 O          -0.0110    0.9628    0.0073 O.3     1  UNL1       -0.3649
     12 O           0.4932    3.4978    1.2109 O.3     1  UNL1       -0.3841
     13 O           2.4121    5.1427   -0.1265 O.3     1  UNL1       -0.3864
     14 O           2.5396    3.6296   -2.4802 O.3     1  UNL1       -0.3869
     15 H           3.7874    1.3118   -2.1849 H       1  UNL1        0.0587
     16 H           3.8962    1.3644   -0.4089 H       1  UNL1        0.0587
     17 H           0.0021   -0.0041    0.0020 H       1  UNL1        0.2126
     18 H          -0.3934    3.1288    1.3239 H       1  UNL1        0.2101
     19 H           3.2572    5.6103   -0.1733 H       1  UNL1        0.2100
     20 H           2.9389    3.3414   -3.3124 H       1  UNL1        0.2100
@<TRIPOS>BOND
     1     1    10    1
     2     1     2    1
     3     1    15    1
     4     1    16    1
     5     2     3    1
     6     2     4    1
     7     2    14    1
     8     4     5    1
     9     4     6    1
    10     4    13    1
    11     6     7    1
    12     6     8    1
    13     6    12    1
    14     8     9    1
    15     8    10    1
    16     8    11    1
    17    11    17    1
    18    12    18    1
    19    13    19    1
    20    14    20    1
