@<TRIPOS>MOLECULE
ZINC03831398
 48 50 0 0 0
SMALL
GASTEIGER

@<TRIPOS>ATOM
      1 C          -0.6524   -7.5759   -1.2562 C.ar    1  UNL1        0.0485
      2 C          -1.0254   -6.5874   -0.4211 C.ar    1  UNL1        0.0375
      3 N          -1.0750   -7.1280    0.8354 N.ar    1  UNL1       -0.3481
      4 H          -1.3239   -6.6499    1.6777 H       1  UNL1        0.1665
      5 C          -0.7251   -8.4277    0.7252 C.ar    1  UNL1        0.0935
      6 N          -0.4706   -8.6876   -0.5281 N.ar    1  UNL1       -0.2440
      7 C          -1.3351   -5.1616   -0.7985 C.3     1  UNL1        0.0160
      8 C          -0.0377   -4.3518   -0.8400 C.3     1  UNL1        0.1050
      9 H           0.4903   -4.4626    0.1071 H       1  UNL1        0.0598
     10 C          -0.3604   -2.8975   -1.0680 C.2     1  UNL1        0.2369
     11 O          -0.3799   -2.4501   -2.1951 O.2     1  UNL1       -0.2735
     12 N          -0.6272   -2.0940   -0.0194 N.am    1  UNL1       -0.2884
     13 C          -0.7387   -2.5243    1.3863 C.3     1  UNL1        0.0156
     14 C          -1.6261   -1.4487    2.0611 C.3     1  UNL1       -0.0350
     15 C          -1.1467   -0.1570    1.3476 C.3     1  UNL1       -0.0243
     16 C          -0.8545   -0.6431   -0.0877 C.3     1  UNL1        0.1020
     17 H          -1.7063   -0.4313   -0.7339 H       1  UNL1        0.0597
     18 C           0.3763    0.0440   -0.6208 C.2     1  UNL1        0.2310
     19 O           1.3545   -0.6087   -0.9178 O.2     1  UNL1       -0.2740
     20 N           0.3901    1.3836   -0.7675 N.am    1  UNL1       -0.3278
     21 N           0.8087   -4.8410   -1.9311 N.am    1  UNL1       -0.3021
     22 C           1.6247   -5.8948   -1.7304 C.2     1  UNL1        0.2340
     23 O           1.6583   -6.4380   -0.6466 O.2     1  UNL1       -0.2738
     24 C           2.4954   -6.3981   -2.8528 C.3     1  UNL1        0.0998
     25 H           2.8997   -5.5601   -3.4207 H       1  UNL1        0.0595
     26 C           1.6864   -7.3332   -3.7788 C.3     1  UNL1       -0.0177
     27 C           2.0014   -8.7223   -3.1772 C.3     1  UNL1        0.0261
     28 C           3.3321   -8.5328   -2.4828 C.2     1  UNL1        0.2137
     29 O           4.0638   -9.4319   -2.1262 O.2     1  UNL1       -0.2758
     30 N           3.5856   -7.2230   -2.3190 N.am    1  UNL1       -0.3040
     31 H          -0.5202   -7.4882   -2.3244 H       1  UNL1        0.0848
     32 H          -0.6654   -9.1347    1.5394 H       1  UNL1        0.1027
     33 H          -2.0101   -4.7288   -0.0602 H       1  UNL1        0.0351
     34 H          -1.8083   -5.1402   -1.7802 H       1  UNL1        0.0351
     35 H          -1.2160   -3.5024    1.4468 H       1  UNL1        0.0465
     36 H           0.2458   -2.5538    1.8532 H       1  UNL1        0.0465
     37 H          -2.6821   -1.6343    1.8651 H       1  UNL1        0.0281
     38 H          -1.4321   -1.3982    3.1325 H       1  UNL1        0.0281
     39 H          -0.2413    0.2289    1.8159 H       1  UNL1        0.0288
     40 H          -1.9333    0.5976    1.3465 H       1  UNL1        0.0288
     41 H           1.1823    1.8258   -1.1107 H       1  UNL1        0.1450
     42 H          -0.3936    1.9052   -0.5337 H       1  UNL1        0.1450
     43 H           0.7819   -4.4066   -2.7980 H       1  UNL1        0.1495
     44 H           0.6202   -7.1147   -3.7187 H       1  UNL1        0.0292
     45 H           2.0397   -7.2644   -4.8076 H       1  UNL1        0.0292
     46 H           2.0859   -9.4695   -3.9663 H       1  UNL1        0.0359
     47 H           1.2343   -9.0122   -2.4591 H       1  UNL1        0.0359
     48 H           4.3864   -6.8685   -1.9020 H       1  UNL1        0.1494
@<TRIPOS>BOND
     1     1     6   ar
     2     1     2   ar
     3     1    31    1
     4     2     3   ar
     5     2     7    1
     6     3     4    1
     7     3     5   ar
     8     5     6   ar
     9     5    32    1
    10     7     8    1
    11     7    33    1
    12     7    34    1
    13     8     9    1
    14     8    10    1
    15     8    21    1
    16    10    11    2
    17    10    12   am
    18    12    16    1
    19    12    13    1
    20    13    14    1
    21    13    35    1
    22    13    36    1
    23    14    15    1
    24    14    37    1
    25    14    38    1
    26    15    16    1
    27    15    39    1
    28    15    40    1
    29    16    17    1
    30    16    18    1
    31    18    19    2
    32    18    20   am
    33    20    41    1
    34    20    42    1
    35    21    22   am
    36    21    43    1
    37    22    23    2
    38    22    24    1
    39    24    25    1
    40    24    30    1
    41    24    26    1
    42    26    27    1
    43    26    44    1
    44    26    45    1
    45    27    28    1
    46    27    46    1
    47    27    47    1
    48    28    29    2
    49    28    30   am
    50    30    48    1
