@<TRIPOS>MOLECULE
ZINC03830358
 74 76 0 0 0
SMALL
GASTEIGER

@<TRIPOS>ATOM
      1 C          -0.6742    2.8568    0.9722 C.3     1  UNL1       -0.0621
      2 C          -0.9454    1.3615    0.7947 C.3     1  UNL1       -0.0405
      3 H          -0.5699    0.8187    1.6621 H       1  UNL1        0.0301
      4 C          -0.2374    0.8610   -0.4659 C.3     1  UNL1       -0.0501
      5 C           1.2757    1.0092   -0.2940 C.3     1  UNL1       -0.0502
      6 C           1.9836    0.5086   -1.5547 C.3     1  UNL1       -0.0245
      7 C           3.4967    0.6568   -1.3828 C.3     1  UNL1        0.0605
      8 C           3.9563   -0.1673   -0.1784 C.3     1  UNL1       -0.0363
      9 C           4.2046    0.1563   -2.6434 C.3     1  UNL1       -0.0363
     10 O           3.8194    2.0325   -1.1696 O.3     1  UNL1       -0.3891
     11 C          -2.4516    1.1288    0.6602 C.3     1  UNL1       -0.0325
     12 H          -2.6519    0.0886    0.4034 H       1  UNL1        0.0309
     13 C          -3.0489    2.0738   -0.4150 C.3     1  UNL1       -0.0489
     14 C          -4.0169    3.0321    0.3349 C.3     1  UNL1       -0.0457
     15 C          -3.4698    3.0147    1.7640 C.3     1  UNL1       -0.0139
     16 H          -2.5592    3.6095    1.8360 H       1  UNL1        0.0351
     17 C          -3.1613    1.5023    1.9524 C.3     1  UNL1       -0.0225
     18 C          -2.4256    1.3432    3.2599 C.3     1  UNL1       -0.0465
     19 C          -3.3972    1.6925    4.3998 C.3     1  UNL1       -0.0488
     20 C          -3.9326    3.1173    4.2714 C.3     1  UNL1       -0.0312
     21 C          -4.4295    3.3804    2.8571 C.2     1  UNL1       -0.0659
     22 C          -5.6320    3.8984    2.6076 C.2     1  UNL1       -0.0620
     23 C          -5.9041    4.5279    1.3133 C.2     1  UNL1       -0.0582
     24 C          -7.1528    4.9410    1.0134 C.2     1  UNL1       -0.0399
     25 C          -8.3024    4.7663    1.9856 C.3     1  UNL1       -0.0011
     26 C          -9.0733    6.0934    2.0581 C.3     1  UNL1        0.0619
     27 H          -8.4181    6.8761    2.4406 H       1  UNL1        0.0597
     28 C          -9.5663    6.4800    0.6631 C.3     1  UNL1        0.0037
     29 C          -8.3705    6.7967   -0.2408 C.3     1  UNL1        0.0822
     30 H          -7.8215    7.6485    0.1607 H       1  UNL1        0.0644
     31 C          -7.4672    5.5803   -0.2814 C.2     1  UNL1       -0.0229
     32 C          -6.9803    5.1097   -1.4294 C.2     1  UNL1       -0.0928
     33 O          -8.8306    7.0989   -1.5595 O.3     1  UNL1       -0.3871
     34 O         -10.1932    5.9419    2.9326 O.3     1  UNL1       -0.3914
     35 C          -4.4778    0.7285    2.0473 C.3     1  UNL1       -0.0588
     36 H          -1.1860    3.4145    0.1880 H       1  UNL1        0.0233
     37 H           0.3981    3.0416    0.9088 H       1  UNL1        0.0233
     38 H          -1.0415    3.1795    1.9464 H       1  UNL1        0.0233
     39 H          -0.4836   -0.1883   -0.6285 H       1  UNL1        0.0268
     40 H          -0.5648    1.4481   -1.3239 H       1  UNL1        0.0268
     41 H           1.5218    2.0585   -0.1315 H       1  UNL1        0.0266
     42 H           1.6031    0.4220    0.5639 H       1  UNL1        0.0266
     43 H           1.7375   -0.5407   -1.7172 H       1  UNL1        0.0293
     44 H           1.6562    1.0958   -2.4126 H       1  UNL1        0.0293
     45 H           3.7101   -1.2166   -0.3410 H       1  UNL1        0.0257
     46 H           5.0342   -0.0617   -0.0560 H       1  UNL1        0.0257
     47 H           3.4519    0.1893    0.7197 H       1  UNL1        0.0257
     48 H           3.8772    0.7435   -3.5014 H       1  UNL1        0.0257
     49 H           5.2826    0.2619   -2.5209 H       1  UNL1        0.0257
     50 H           3.9585   -0.8930   -2.8059 H       1  UNL1        0.0257
     51 H           3.5562    2.6152   -1.8951 H       1  UNL1        0.2101
     52 H          -2.2540    2.6448   -0.8948 H       1  UNL1        0.0268
     53 H          -3.5966    1.4955   -1.1591 H       1  UNL1        0.0268
     54 H          -3.9681    4.0368   -0.0851 H       1  UNL1        0.0271
     55 H          -5.0373    2.6499    0.3072 H       1  UNL1        0.0271
     56 H          -1.5728    2.0218    3.2798 H       1  UNL1        0.0271
     57 H          -2.0823    0.3144    3.3687 H       1  UNL1        0.0271
     58 H          -2.8775    1.5928    5.3527 H       1  UNL1        0.0268
     59 H          -4.2347    0.9951    4.3789 H       1  UNL1        0.0268
     60 H          -3.1364    3.8227    4.5092 H       1  UNL1        0.0310
     61 H          -4.7557    3.2554    4.9726 H       1  UNL1        0.0310
     62 H          -6.4058    3.8540    3.3597 H       1  UNL1        0.0617
     63 H          -5.1050    4.6614    0.5991 H       1  UNL1        0.0620
     64 H          -8.9627    3.9731    1.6347 H       1  UNL1        0.0338
     65 H          -7.9139    4.5119    2.9717 H       1  UNL1        0.0338
     66 H         -10.2080    7.3580    0.7360 H       1  UNL1        0.0318
     67 H         -10.1334    5.6524    0.2370 H       1  UNL1        0.0318
     68 H          -6.3390    4.2406   -1.4282 H       1  UNL1        0.0538
     69 H          -7.2269    5.5974   -2.3609 H       1  UNL1        0.0538
     70 H          -8.1222    7.2929   -2.1884 H       1  UNL1        0.2102
     71 H          -9.9555    5.6965    3.8372 H       1  UNL1        0.2098
     72 H          -4.2668   -0.3325    2.1810 H       1  UNL1        0.0235
     73 H          -5.0537    1.0943    2.8974 H       1  UNL1        0.0235
     74 H          -5.0507    0.8725    1.1313 H       1  UNL1        0.0235
@<TRIPOS>BOND
     1     1     2    1
     2     1    36    1
     3     1    37    1
     4     1    38    1
     5     2     3    1
     6     2     4    1
     7     2    11    1
     8     4     5    1
     9     4    39    1
    10     4    40    1
    11     5     6    1
    12     5    41    1
    13     5    42    1
    14     6     7    1
    15     6    43    1
    16     6    44    1
    17     7     8    1
    18     7     9    1
    19     7    10    1
    20     8    45    1
    21     8    46    1
    22     8    47    1
    23     9    48    1
    24     9    49    1
    25     9    50    1
    26    10    51    1
    27    11    12    1
    28    11    17    1
    29    11    13    1
    30    13    14    1
    31    13    52    1
    32    13    53    1
    33    14    15    1
    34    14    54    1
    35    14    55    1
    36    15    16    1
    37    15    21    1
    38    15    17    1
    39    17    18    1
    40    17    35    1
    41    18    19    1
    42    18    56    1
    43    18    57    1
    44    19    20    1
    45    19    58    1
    46    19    59    1
    47    20    21    1
    48    20    60    1
    49    20    61    1
    50    21    22    2
    51    22    23    1
    52    22    62    1
    53    23    24    2
    54    23    63    1
    55    24    31    1
    56    24    25    1
    57    25    26    1
    58    25    64    1
    59    25    65    1
    60    26    27    1
    61    26    28    1
    62    26    34    1
    63    28    29    1
    64    28    66    1
    65    28    67    1
    66    29    30    1
    67    29    31    1
    68    29    33    1
    69    31    32    2
    70    32    68    1
    71    32    69    1
    72    33    70    1
    73    34    71    1
    74    35    72    1
    75    35    73    1
    76    35    74    1
