@<TRIPOS>MOLECULE
ZINC00001290
 40 41 0 0 0
SMALL
GASTEIGER

@<TRIPOS>ATOM
      1 C           1.3265    2.0199    0.0173 C.3     1  UNL1       -0.0612
      2 C          -0.0718    1.4002    0.0569 C.3     1  UNL1       -0.0297
      3 C           0.0438   -0.1022    0.0363 C.2     1  UNL1       -0.0368
      4 C           0.0373   -0.7920    1.1886 C.2     1  UNL1       -0.0368
      5 C           0.2711   -2.2807    1.1768 C.3     1  UNL1       -0.0297
      6 C          -1.0746   -3.0082    1.1479 C.3     1  UNL1       -0.0612
      7 C          -0.1985   -0.0934    2.4642 C.ar    1  UNL1       -0.0214
      8 C           0.8272    0.0073    3.4085 C.ar    1  UNL1       -0.0509
      9 C           0.6036    0.6667    4.5977 C.ar    1  UNL1       -0.0196
     10 C          -0.6421    1.2204    4.8638 C.ar    1  UNL1        0.1169
     11 C          -1.6661    1.1180    3.9310 C.ar    1  UNL1       -0.0196
     12 C          -1.4503    0.4659    2.7364 C.ar    1  UNL1       -0.0509
     13 O          -0.8595    1.8646    6.0401 O.3     1  UNL1       -0.5068
     14 C           0.1639   -0.8143   -1.2480 C.ar    1  UNL1       -0.0214
     15 C           1.3627   -1.4467   -1.5896 C.ar    1  UNL1       -0.0509
     16 C           1.4684   -2.1163   -2.7894 C.ar    1  UNL1       -0.0196
     17 C           0.3900   -2.1532   -3.6639 C.ar    1  UNL1        0.1169
     18 C          -0.8014   -1.5214   -3.3315 C.ar    1  UNL1       -0.0196
     19 C          -0.9187   -0.8546   -2.1313 C.ar    1  UNL1       -0.0509
     20 O           0.5008   -2.8098   -4.8482 O.3     1  UNL1       -0.5068
     21 H           1.2475    3.1020    0.1214 H       1  UNL1        0.0233
     22 H           1.9249    1.6190    0.8354 H       1  UNL1        0.0233
     23 H           1.8033    1.7802   -0.9331 H       1  UNL1        0.0233
     24 H          -0.6413    1.7328   -0.8109 H       1  UNL1        0.0311
     25 H          -0.5821    1.7129    0.9680 H       1  UNL1        0.0311
     26 H           0.8492   -2.5508    0.2931 H       1  UNL1        0.0311
     27 H           0.8209   -2.5692    2.0727 H       1  UNL1        0.0311
     28 H          -1.5863   -2.7886    0.2108 H       1  UNL1        0.0233
     29 H          -0.9087   -4.0825    1.2282 H       1  UNL1        0.0233
     30 H          -1.6875   -2.6717    1.9841 H       1  UNL1        0.0233
     31 H           1.7947   -0.4271    3.2045 H       1  UNL1        0.0625
     32 H           1.3970    0.7494    5.3257 H       1  UNL1        0.0654
     33 H          -2.6330    1.5504    4.1422 H       1  UNL1        0.0654
     34 H          -2.2470    0.3874    2.0114 H       1  UNL1        0.0625
     35 H          -1.1819    1.2912    6.7488 H       1  UNL1        0.2921
     36 H           2.2033   -1.4145   -0.9123 H       1  UNL1        0.0625
     37 H           2.3926   -2.6097   -3.0519 H       1  UNL1        0.0654
     38 H          -1.6373   -1.5531   -4.0146 H       1  UNL1        0.0654
     39 H          -1.8458   -0.3642   -1.8733 H       1  UNL1        0.0625
     40 H           0.8190   -2.2579   -5.5757 H       1  UNL1        0.2921
@<TRIPOS>BOND
     1     1     2    1
     2     1    21    1
     3     1    22    1
     4     1    23    1
     5     2     3    1
     6     2    24    1
     7     2    25    1
     8     3     4    2
     9     3    14    1
    10     4     5    1
    11     4     7    1
    12     5     6    1
    13     5    26    1
    14     5    27    1
    15     6    28    1
    16     6    29    1
    17     6    30    1
    18     7    12   ar
    19     7     8   ar
    20     8     9   ar
    21     8    31    1
    22     9    10   ar
    23     9    32    1
    24    10    11   ar
    25    10    13    1
    26    11    12   ar
    27    11    33    1
    28    12    34    1
    29    13    35    1
    30    14    19   ar
    31    14    15   ar
    32    15    16   ar
    33    15    36    1
    34    16    17   ar
    35    16    37    1
    36    17    18   ar
    37    17    20    1
    38    18    19   ar
    39    18    38    1
    40    19    39    1
    41    20    40    1
