@<TRIPOS>MOLECULE
ZINC03830190
 27 27 0 0 0
SMALL
GASTEIGER

@<TRIPOS>ATOM
      1 C           1.9284    2.4262    3.3509 C.2     1  UNL1       -0.1026
      2 C           1.2123    3.0998    2.4851 C.2     1  UNL1       -0.0897
      3 C           1.8581    3.6518    1.2404 C.3     1  UNL1       -0.0123
      4 C           1.1004    3.1524    0.0085 C.3     1  UNL1        0.1301
      5 C           1.1604    1.6366   -0.0002 C.2     1  UNL1        0.2360
      6 O           2.2209    1.0495   -0.0139 O.2     1  UNL1       -0.2742
      7 N          -0.0111    0.9658    0.0074 N.am    1  UNL1       -0.2390
      8 C          -1.1897    1.5988    0.0165 C.2     1  UNL1        0.3122
      9 O          -2.1951    0.9168    0.0177 O.2     1  UNL1       -0.2520
     10 N          -1.3421    2.9280    0.0306 N.am    1  UNL1       -0.2390
     11 C          -0.2858    3.7685    0.0250 C.2     1  UNL1        0.2360
     12 O          -0.4392    4.9710    0.0333 O.2     1  UNL1       -0.2742
     13 C           1.8298    3.6649   -1.2350 C.3     1  UNL1       -0.0123
     14 C           1.1558    3.1261   -2.4705 C.2     1  UNL1       -0.0897
     15 C           0.7377    3.9489   -3.4002 C.2     1  UNL1       -0.1026
     16 H           2.9815    2.2664    3.1726 H       1  UNL1        0.0532
     17 H           1.4656    2.0307    4.2430 H       1  UNL1        0.0532
     18 H           0.1592    3.2596    2.6634 H       1  UNL1        0.0567
     19 H           2.8943    3.3175    1.1898 H       1  UNL1        0.0322
     20 H           1.8286    4.7410    1.2682 H       1  UNL1        0.0322
     21 H           0.0021   -0.0041    0.0020 H       1  UNL1        0.1591
     22 H          -2.2383    3.2988    0.0408 H       1  UNL1        0.1591
     23 H           1.7999    4.7543   -1.2506 H       1  UNL1        0.0322
     24 H           2.8669    3.3302   -1.2117 H       1  UNL1        0.0322
     25 H           1.0174    2.0616   -2.5895 H       1  UNL1        0.0567
     26 H           0.2546    3.5627   -4.2856 H       1  UNL1        0.0532
     27 H           0.8760    5.0133   -3.2812 H       1  UNL1        0.0532
@<TRIPOS>BOND
     1     1     2    2
     2     1    16    1
     3     1    17    1
     4     2     3    1
     5     2    18    1
     6     3     4    1
     7     3    19    1
     8     3    20    1
     9     4    11    1
    10     4     5    1
    11     4    13    1
    12     5     6    2
    13     5     7   am
    14     7     8   am
    15     7    21    1
    16     8     9    2
    17     8    10   am
    18    10    11   am
    19    10    22    1
    20    11    12    2
    21    13    14    1
    22    13    23    1
    23    13    24    1
    24    14    15    2
    25    14    25    1
    26    15    26    1
    27    15    27    1
