@<TRIPOS>MOLECULE
ZINC03831195
 52 53 0 0 0
SMALL
GASTEIGER

@<TRIPOS>ATOM
      1 C          -0.2236    1.0686    2.6177 C.3     1  UNL1        0.0381
      2 C           1.1908    1.5965    2.8659 C.3     1  UNL1        0.0100
      3 H           1.1760    2.6864    2.8719 H       1  UNL1        0.0878
      4 C           2.1208    1.1051    1.7547 C.3     1  UNL1        0.1260
      5 H           2.1356    0.0153    1.7488 H       1  UNL1        0.0677
      6 C           1.6156    1.6158    0.4039 C.3     1  UNL1        0.1177
      7 H           2.2781    1.2657   -0.3877 H       1  UNL1        0.0649
      8 C           0.2011    1.0879    0.1557 C.3     1  UNL1        0.1326
      9 H           0.2159   -0.0020    0.1497 H       1  UNL1        0.0681
     10 C          -0.7288    1.5792    1.2668 C.3     1  UNL1        0.0104
     11 H          -1.7365    1.2032    1.0900 H       1  UNL1        0.0878
     12 O          -0.2707    1.5648   -1.1060 O.3     1  UNL1       -0.3347
     13 C           0.0341    0.7027   -2.2042 C.3     1  UNL1        0.2061
     14 H           1.0931    0.4457   -2.1814 H       1  UNL1        0.0970
     15 C          -0.2898    1.4169   -3.5191 C.3     1  UNL1        0.0568
     16 H           0.3377    2.3028   -3.6165 H       1  UNL1        0.0927
     17 C          -0.0176    0.4654   -4.6883 C.3     1  UNL1        0.1305
     18 H           1.0420    0.2110   -4.7121 H       1  UNL1        0.0679
     19 C          -0.8464   -0.8089   -4.4991 C.3     1  UNL1        0.1176
     20 H          -0.6170   -1.5145   -5.2975 H       1  UNL1        0.0649
     21 C          -0.5008   -1.4369   -3.1463 C.3     1  UNL1        0.1296
     22 H           0.5512   -1.7221   -3.1360 H       1  UNL1        0.0678
     23 O          -0.7479   -0.4893   -2.1056 O.3     1  UNL1       -0.3351
     24 C          -1.3680   -2.6775   -2.9233 C.3     1  UNL1       -0.0058
     25 O          -2.2374   -0.4832   -4.5329 O.3     1  UNL1       -0.3862
     26 O          -0.3869    1.0980   -5.9153 O.3     1  UNL1       -0.3834
     27 O           1.5962    3.0446    0.4117 O.3     1  UNL1       -0.3862
     28 O           3.4419    1.5982    1.9865 O.3     1  UNL1       -0.3835
     29 H          -0.2089   -0.0213    2.6117 H       1  UNL1        0.0377
     30 H          -0.8862    1.4186    3.4093 H       1  UNL1        0.0377
     31 H          -1.1599    3.4088    0.4270 H       1  UNL1        0.1998
     32 H          -1.2317    3.3987    2.0885 H       1  UNL1        0.1998
     33 H          -2.4199   -2.3921   -2.9341 H       1  UNL1        0.0840
     34 H          -1.1794   -3.4002   -3.7172 H       1  UNL1        0.0840
     35 H          -1.5970   -4.1010   -1.4537 H       1  UNL1        0.1995
     36 H          -0.0529   -3.4935   -1.5657 H       1  UNL1        0.1995
     37 H          -2.5270   -0.0805   -5.3630 H       1  UNL1        0.2100
     38 H          -0.2471    0.5486   -6.6986 H       1  UNL1        0.2102
     39 H          -1.9099    2.4365   -2.7616 H       1  UNL1        0.2000
     40 H          -1.9585    2.2282   -4.4109 H       1  UNL1        0.2000
     41 H           2.4613    3.4489    0.5641 H       1  UNL1        0.2100
     42 H           4.0863    1.3252    1.3192 H       1  UNL1        0.2102
     43 H           1.0780    1.4175    4.9137 H       1  UNL1        0.1998
     44 H           1.7600    0.1007    4.1609 H       1  UNL1        0.1998
     45 N          -0.7239    3.0528    1.2760 N.4     1  UNL1        0.2228
     46 H           0.2460    3.3868    1.3199 H       1  UNL1        0.1998
     47 N          -1.0435   -3.2601   -1.6092 N.4     1  UNL1        0.2204
     48 H          -1.2592   -2.5763   -0.8743 H       1  UNL1        0.1995
     49 N          -1.7153    1.7897   -3.5242 N.4     1  UNL1        0.2263
     50 H          -2.2856    0.9449   -3.4006 H       1  UNL1        0.2000
     51 N           1.6985    1.1175    4.1636 N.4     1  UNL1        0.2228
     52 H           2.6337    1.5092    4.3256 H       1  UNL1        0.1998
@<TRIPOS>UNITY_ATOM_ATTR
45 1
charge 1
47 1
charge 1
49 1
charge 1
51 1
charge 1
@<TRIPOS>BOND
     1     1    10    1
     2     1     2    1
     3     1    29    1
     4     1    30    1
     5     2     3    1
     6     2     4    1
     7     2    51    1
     8     4     5    1
     9     4     6    1
    10     4    28    1
    11     6     7    1
    12     6     8    1
    13     6    27    1
    14     8     9    1
    15     8    10    1
    16     8    12    1
    17    10    11    1
    18    10    45    1
    19    12    13    1
    20    13    14    1
    21    13    23    1
    22    13    15    1
    23    15    16    1
    24    15    17    1
    25    15    49    1
    26    17    18    1
    27    17    19    1
    28    17    26    1
    29    19    20    1
    30    19    21    1
    31    19    25    1
    32    21    22    1
    33    21    23    1
    34    21    24    1
    35    24    33    1
    36    24    34    1
    37    24    47    1
    38    25    37    1
    39    26    38    1
    40    27    41    1
    41    28    42    1
    42    31    45    1
    43    32    45    1
    44    35    47    1
    45    36    47    1
    46    39    49    1
    47    40    49    1
    48    43    51    1
    49    44    51    1
    50    45    46    1
    51    47    48    1
    52    49    50    1
    53    51    52    1
