@<TRIPOS>MOLECULE
ZINC03830768
 56 60 0 0 0
SMALL
GASTEIGER

@<TRIPOS>ATOM
      1 C          -0.2731   -0.3908    2.4623 C.3     1  UNL1       -0.0569
      2 C           0.6845   -0.5481    1.2795 C.3     1  UNL1       -0.0030
      3 C           0.0675   -0.0187   -0.0158 C.3     1  UNL1       -0.0445
      4 C           0.0246    1.5086   -0.0294 C.3     1  UNL1       -0.0454
      5 C           1.4619    2.0247    0.0616 C.3     1  UNL1       -0.0125
      6 H           2.0548    1.5811   -0.7383 H       1  UNL1        0.0352
      7 C           1.4954    3.5205   -0.0725 C.ar    1  UNL1       -0.0406
      8 C           0.6549    4.1189   -1.0017 C.ar    1  UNL1       -0.0546
      9 C           0.6733    5.4848   -1.1877 C.ar    1  UNL1       -0.0189
     10 C           1.5395    6.2684   -0.4385 C.ar    1  UNL1        0.1322
     11 C           2.3727    5.6721    0.4920 C.ar    1  UNL1       -0.0158
     12 C           2.3504    4.2967    0.6815 C.ar    1  UNL1       -0.0404
     13 C           3.2770    3.7195    1.7191 C.3     1  UNL1       -0.0270
     14 C           3.4302    2.2092    1.5443 C.3     1  UNL1       -0.0454
     15 C           2.0353    1.5982    1.4093 C.3     1  UNL1       -0.0305
     16 H           1.4028    2.0070    2.1972 H       1  UNL1        0.0310
     17 C           2.0580    0.0977    1.5465 C.3     1  UNL1       -0.0298
     18 H           2.3900   -0.1570    2.5530 H       1  UNL1        0.0310
     19 C           2.9784   -0.5807    0.5151 C.3     1  UNL1       -0.0470
     20 C           2.4964   -2.0497    0.5132 C.3     1  UNL1       -0.0261
     21 C           1.0445   -2.0365    1.0265 C.3     1  UNL1        0.0609
     22 H           0.9696   -2.6027    1.9549 H       1  UNL1        0.0599
     23 O           0.1707   -2.5920    0.0416 O.3     1  UNL1       -0.3912
     24 O           1.5700    7.6152   -0.6181 O.3     1  UNL1       -0.4223
     25 C           2.6781    8.1319   -1.1840 C.2     1  UNL1        0.3444
     26 O           3.5466    7.3935   -1.6037 O.2     1  UNL1       -0.2445
     27 C           2.8369    9.5964   -1.2941 C.ar    1  UNL1        0.0594
     28 C           1.8380   10.4479   -0.8179 C.ar    1  UNL1       -0.0478
     29 C           1.9959   11.8147   -0.9178 C.ar    1  UNL1       -0.0610
     30 C           3.1350   12.3419   -1.5000 C.ar    1  UNL1       -0.0617
     31 C           4.1260   11.5038   -1.9796 C.ar    1  UNL1       -0.0610
     32 C           3.9841   10.1353   -1.8801 C.ar    1  UNL1       -0.0478
     33 H          -1.1944   -0.9367    2.2590 H       1  UNL1        0.0236
     34 H           0.1937   -0.7889    3.3633 H       1  UNL1        0.0236
     35 H          -0.5010    0.6652    2.6074 H       1  UNL1        0.0236
     36 H          -0.9474   -0.4047   -0.1111 H       1  UNL1        0.0272
     37 H           0.6618   -0.3662   -0.8609 H       1  UNL1        0.0272
     38 H          -0.4333    1.8559   -0.9556 H       1  UNL1        0.0271
     39 H          -0.5504    1.8684    0.8238 H       1  UNL1        0.0271
     40 H          -0.0197    3.5087   -1.5839 H       1  UNL1        0.0622
     41 H           0.0166    5.9426   -1.9126 H       1  UNL1        0.0654
     42 H           3.0463    6.2819    1.0757 H       1  UNL1        0.0657
     43 H           2.8750    3.9254    2.7111 H       1  UNL1        0.0313
     44 H           4.2553    4.1910    1.6262 H       1  UNL1        0.0313
     45 H           3.9334    1.7878    2.4146 H       1  UNL1        0.0271
     46 H           4.0114    2.0003    0.6462 H       1  UNL1        0.0271
     47 H           4.0199   -0.5189    0.8308 H       1  UNL1        0.0269
     48 H           2.8475   -0.1325   -0.4698 H       1  UNL1        0.0269
     49 H           3.1212   -2.6487    1.1757 H       1  UNL1        0.0290
     50 H           2.5310   -2.4528   -0.4989 H       1  UNL1        0.0290
     51 H           0.3459   -3.5214   -0.1602 H       1  UNL1        0.2098
     52 H           0.9463   10.0376   -0.3676 H       1  UNL1        0.0626
     53 H           1.2264   12.4746   -0.5452 H       1  UNL1        0.0618
     54 H           3.2514   13.4127   -1.5802 H       1  UNL1        0.0618
     55 H           5.0128   11.9219   -2.4326 H       1  UNL1        0.0618
     56 H           4.7586    9.4822   -2.2542 H       1  UNL1        0.0626
@<TRIPOS>BOND
     1     1     2    1
     2     1    33    1
     3     1    34    1
     4     1    35    1
     5     2    17    1
     6     2    21    1
     7     2     3    1
     8     3     4    1
     9     3    36    1
    10     3    37    1
    11     4     5    1
    12     4    38    1
    13     4    39    1
    14     5     6    1
    15     5    15    1
    16     5     7    1
    17     7    12   ar
    18     7     8   ar
    19     8     9   ar
    20     8    40    1
    21     9    10   ar
    22     9    41    1
    23    10    11   ar
    24    10    24    1
    25    11    12   ar
    26    11    42    1
    27    12    13    1
    28    13    14    1
    29    13    43    1
    30    13    44    1
    31    14    15    1
    32    14    45    1
    33    14    46    1
    34    15    16    1
    35    15    17    1
    36    17    18    1
    37    17    19    1
    38    19    20    1
    39    19    47    1
    40    19    48    1
    41    20    21    1
    42    20    49    1
    43    20    50    1
    44    21    22    1
    45    21    23    1
    46    23    51    1
    47    24    25    1
    48    25    26    2
    49    25    27    1
    50    27    32   ar
    51    27    28   ar
    52    28    29   ar
    53    28    52    1
    54    29    30   ar
    55    29    53    1
    56    30    31   ar
    57    30    54    1
    58    31    32   ar
    59    31    55    1
    60    32    56    1
