@<TRIPOS>MOLECULE
ZINC03830739
 62 65 0 0 0
SMALL
GASTEIGER

@<TRIPOS>ATOM
      1 C           2.4556   -2.5439   -1.2704 C.3     1  UNL1       -0.0552
      2 C           1.1678   -2.1234   -0.5594 C.3     1  UNL1        0.0421
      3 C           1.0750   -0.6194   -0.5358 C.2     1  UNL1        0.3071
      4 O           1.9493    0.0477   -1.0363 O.2     1  UNL1       -0.2509
      5 O           0.0212   -0.0210    0.0412 O.3     1  UNL1       -0.4608
      6 C          -0.0018    1.4270    0.0269 C.3     1  UNL1        0.1087
      7 H           0.9995    1.8404    0.0251 H       1  UNL1        0.0739
      8 C          -0.8177    1.9454   -1.1835 C.3     1  UNL1       -0.0149
      9 C          -1.7758    3.0380   -0.6338 C.3     1  UNL1       -0.0460
     10 C          -1.1879    3.3472    0.7507 C.3     1  UNL1       -0.0291
     11 H          -0.2626    3.9418    0.5919 H       1  UNL1        0.0310
     12 C          -0.7852    1.9476    1.2538 C.3     1  UNL1        0.0081
     13 C           0.0324    2.0387    2.5185 C.3     1  UNL1       -0.0437
     14 C          -0.4393    3.2137    3.3878 C.3     1  UNL1       -0.0488
     15 C          -1.9049    3.5346    3.1229 C.3     1  UNL1       -0.0322
     16 H          -2.5040    2.6317    3.2334 H       1  UNL1        0.0309
     17 C          -2.0633    4.0976    1.7099 C.3     1  UNL1       -0.0342
     18 H          -1.7068    5.1449    1.7375 H       1  UNL1        0.0306
     19 C          -3.5323    4.1327    1.3015 C.3     1  UNL1       -0.0494
     20 C          -4.3736    4.5624    2.5171 C.3     1  UNL1       -0.0491
     21 C          -3.4827    5.4128    3.4111 C.3     1  UNL1       -0.0287
     22 H          -2.9258    6.1127    2.7646 H       1  UNL1        0.0310
     23 C          -2.4621    4.5362    4.1383 C.3     1  UNL1       -0.0251
     24 C          -1.3783    5.4067    4.7442 C.3     1  UNL1       -0.0378
     25 C          -1.9129    6.5449    5.5994 C.3     1  UNL1        0.0152
     26 H          -1.2891    7.3246    5.5443 H       1  UNL1        0.0375
     27 C          -3.2384    7.0962    5.1609 C.2     1  UNL1        0.1365
     28 O          -3.5080    8.2606    5.3966 O.2     1  UNL1       -0.2971
     29 C          -4.2554    6.2434    4.4285 C.3     1  UNL1        0.0094
     30 C          -1.9687    6.1426    7.0764 C.3     1  UNL1       -0.0557
     31 C          -3.1505    3.7178    5.2324 C.3     1  UNL1       -0.0590
     32 C          -1.9849    1.0170    1.4378 C.3     1  UNL1       -0.0559
     33 H           3.3146   -2.1352   -0.7381 H       1  UNL1        0.0235
     34 H           2.5227   -3.6317   -1.2874 H       1  UNL1        0.0235
     35 H           2.4471   -2.1643   -2.2921 H       1  UNL1        0.0235
     36 H           1.1763   -2.5029    0.4624 H       1  UNL1        0.0375
     37 H           0.3089   -2.5321   -1.0916 H       1  UNL1        0.0375
     38 H          -0.1502    2.3786   -1.9279 H       1  UNL1        0.0301
     39 H          -1.3945    1.1325   -1.6239 H       1  UNL1        0.0301
     40 H          -1.7405    3.9282   -1.2669 H       1  UNL1        0.0269
     41 H          -2.7943    2.6667   -0.5637 H       1  UNL1        0.0269
     42 H           1.0907    2.1786    2.2630 H       1  UNL1        0.0272
     43 H          -0.0579    1.1051    3.0855 H       1  UNL1        0.0272
     44 H           0.1710    4.0926    3.1575 H       1  UNL1        0.0268
     45 H          -0.2981    2.9611    4.4404 H       1  UNL1        0.0268
     46 H          -3.6712    4.8568    0.5007 H       1  UNL1        0.0268
     47 H          -3.8581    3.1498    0.9752 H       1  UNL1        0.0268
     48 H          -5.2178    5.1622    2.1677 H       1  UNL1        0.0268
     49 H          -4.7380    3.6858    3.0404 H       1  UNL1        0.0268
     50 H          -0.7676    5.8260    3.9295 H       1  UNL1        0.0277
     51 H          -0.7111    4.7789    5.3522 H       1  UNL1        0.0277
     52 H          -4.9082    6.8318    3.9515 H       1  UNL1        0.0344
     53 H          -4.8280    5.6368    5.1177 H       1  UNL1        0.0344
     54 H          -2.7356    5.3808    7.2168 H       1  UNL1        0.0236
     55 H          -1.0010    5.7444    7.3813 H       1  UNL1        0.0236
     56 H          -2.2093    7.0163    7.6821 H       1  UNL1        0.0236
     57 H          -3.9125    3.0803    4.7842 H       1  UNL1        0.0235
     58 H          -2.4123    3.0985    5.7418 H       1  UNL1        0.0235
     59 H          -3.6173    4.3917    5.9508 H       1  UNL1        0.0235
     60 H          -1.6385   -0.0148    1.4978 H       1  UNL1        0.0236
     61 H          -2.5097    1.2781    2.3568 H       1  UNL1        0.0236
     62 H          -2.6614    1.1244    0.5900 H       1  UNL1        0.0236
@<TRIPOS>BOND
     1     1     2    1
     2     1    33    1
     3     1    34    1
     4     1    35    1
     5     2     3    1
     6     2    36    1
     7     2    37    1
     8     3     4    2
     9     3     5    1
    10     5     6    1
    11     6     7    1
    12     6    12    1
    13     6     8    1
    14     8     9    1
    15     8    38    1
    16     8    39    1
    17     9    10    1
    18     9    40    1
    19     9    41    1
    20    10    11    1
    21    10    17    1
    22    10    12    1
    23    12    13    1
    24    12    32    1
    25    13    14    1
    26    13    42    1
    27    13    43    1
    28    14    15    1
    29    14    44    1
    30    14    45    1
    31    15    16    1
    32    15    23    1
    33    15    17    1
    34    17    18    1
    35    17    19    1
    36    19    20    1
    37    19    46    1
    38    19    47    1
    39    20    21    1
    40    20    48    1
    41    20    49    1
    42    21    22    1
    43    21    29    1
    44    21    23    1
    45    23    24    1
    46    23    31    1
    47    24    25    1
    48    24    50    1
    49    24    51    1
    50    25    26    1
    51    25    27    1
    52    25    30    1
    53    27    28    2
    54    27    29    1
    55    29    52    1
    56    29    53    1
    57    30    54    1
    58    30    55    1
    59    30    56    1
    60    31    57    1
    61    31    58    1
    62    31    59    1
    63    32    60    1
    64    32    61    1
    65    32    62    1
