@<TRIPOS>MOLECULE
ZINC03830581
 61 62 0 0 0
SMALL
GASTEIGER

@<TRIPOS>ATOM
      1 C          -5.9367   -0.4324    2.9868 C.3     1  UNL1       -0.0653
      2 C          -4.8548    0.5717    2.5841 C.3     1  UNL1       -0.0555
      3 C          -3.5169    0.1531    3.1969 C.3     1  UNL1       -0.0454
      4 C          -2.4350    1.1572    2.7943 C.3     1  UNL1        0.0048
      5 H          -2.7525    2.1752    3.0196 H       1  UNL1        0.0354
      6 C          -1.0977    0.8325    3.4989 C.3     1  UNL1        0.0066
      7 C          -0.0116    1.0879    2.4376 C.3     1  UNL1        0.0569
      8 H           0.5292    0.1655    2.2260 H       1  UNL1        0.0950
      9 C          -2.0794    1.0134    1.2931 C.3     1  UNL1       -0.0283
     10 C          -0.0127    1.0858    0.0080 C.3     1  UNL1       -0.0423
     11 C           0.9462    2.1435    2.9269 C.2     1  UNL1        0.2616
     12 O           0.8255    3.2914    2.5546 O.2     1  UNL1       -0.2696
     13 N           1.9370    1.8118    3.7783 N.am    1  UNL1       -0.3039
     14 C           2.8681    2.8380    4.2540 C.3     1  UNL1        0.0679
     15 H           2.3378    3.7829    4.3727 H       1  UNL1        0.0539
     16 C           3.4545    2.4097    5.6007 C.3     1  UNL1        0.1081
     17 H           3.9849    1.4648    5.4822 H       1  UNL1        0.0642
     18 C           2.3237    2.2364    6.6181 C.3     1  UNL1        0.1114
     19 H           1.6544    1.4424    6.2870 H       1  UNL1        0.0647
     20 C           2.9233    1.8664    7.9782 C.3     1  UNL1        0.1125
     21 H           3.4378    0.9085    7.9015 H       1  UNL1        0.0647
     22 C           3.9204    2.9515    8.3964 C.3     1  UNL1        0.1188
     23 H           4.3929    2.6689    9.3372 H       1  UNL1        0.0655
     24 C           4.9895    3.0971    7.3104 C.3     1  UNL1        0.1327
     25 H           5.5400    2.1613    7.2144 H       1  UNL1        0.0740
     26 O           4.3624    3.4107    6.0652 O.3     1  UNL1       -0.3557
     27 S           6.1347    4.4290    7.7637 S.3     1  UNL1       -0.1305
     28 C           7.4076    4.3715    6.4726 C.3     1  UNL1       -0.0156
     29 O           3.2334    4.1938    8.5600 O.3     1  UNL1       -0.3857
     30 O           1.8806    1.7725    8.9507 O.3     1  UNL1       -0.3865
     31 O           1.5936    3.4593    6.7334 O.3     1  UNL1       -0.3865
     32 C           3.9984    3.0117    3.2376 C.3     1  UNL1        0.0520
     33 H           4.5287    2.0668    3.1190 H       1  UNL1        0.0482
     34 C           3.4120    3.4400    1.8910 C.3     1  UNL1       -0.0470
     35 CL          5.1444    4.2746    3.8231 Cl      1  UNL1       -0.1201
     36 H          -5.6653   -1.4238    2.6241 H       1  UNL1        0.0230
     37 H          -6.0256   -0.4546    4.0729 H       1  UNL1        0.0230
     38 H          -6.8898   -0.1341    2.5502 H       1  UNL1        0.0230
     39 H          -5.1261    1.5632    2.9467 H       1  UNL1        0.0263
     40 H          -4.7658    0.5939    1.4980 H       1  UNL1        0.0263
     41 H          -3.2455   -0.8384    2.8343 H       1  UNL1        0.0270
     42 H          -3.6058    0.1309    4.2831 H       1  UNL1        0.0270
     43 H          -1.0801   -0.2105    3.8148 H       1  UNL1        0.0329
     44 H          -0.9519    1.4907    4.3554 H       1  UNL1        0.0329
     45 H          -2.7608    1.6015    0.6783 H       1  UNL1        0.0817
     46 H          -2.0955   -0.0343    0.9926 H       1  UNL1        0.0817
     47 H           0.0021   -0.0041    0.0020 H       1  UNL1        0.0778
     48 H           1.0099    1.4631    0.0003 H       1  UNL1        0.0778
     49 H          -0.5399    1.4469   -0.8751 H       1  UNL1        0.0778
     50 H           2.0336    0.8937    4.0761 H       1  UNL1        0.1493
     51 H           7.8902    3.3942    6.4814 H       1  UNL1        0.0341
     52 H           6.9462    4.5401    5.4996 H       1  UNL1        0.0341
     53 H           8.1514    5.1457    6.6610 H       1  UNL1        0.0341
     54 H           3.8050    4.9274    8.8251 H       1  UNL1        0.2100
     55 H           2.1893    1.5408    9.8373 H       1  UNL1        0.2100
     56 H           0.8603    3.4218    7.3627 H       1  UNL1        0.2100
     57 H           2.8817    4.3849    2.0096 H       1  UNL1        0.0244
     58 H           4.2173    3.5637    1.1669 H       1  UNL1        0.0244
     59 H           2.7193    2.6765    1.5370 H       1  UNL1        0.0244
     60 N          -0.7127    1.5559    1.2411 N.4     1  UNL1        0.2420
     61 H          -0.7467    2.5821    1.2384 H       1  UNL1        0.2039
@<TRIPOS>UNITY_ATOM_ATTR
60 1
charge 1
@<TRIPOS>BOND
     1     1     2    1
     2     1    36    1
     3     1    37    1
     4     1    38    1
     5     2     3    1
     6     2    39    1
     7     2    40    1
     8     3     4    1
     9     3    41    1
    10     3    42    1
    11     4     5    1
    12     4     9    1
    13     4     6    1
    14     6     7    1
    15     6    43    1
    16     6    44    1
    17     7     8    1
    18     7    11    1
    19     7    60    1
    20     9    45    1
    21     9    46    1
    22     9    60    1
    23    10    47    1
    24    10    48    1
    25    10    49    1
    26    10    60    1
    27    11    12    2
    28    11    13   am
    29    13    14    1
    30    13    50    1
    31    14    15    1
    32    14    16    1
    33    14    32    1
    34    16    17    1
    35    16    26    1
    36    16    18    1
    37    18    19    1
    38    18    20    1
    39    18    31    1
    40    20    21    1
    41    20    22    1
    42    20    30    1
    43    22    23    1
    44    22    24    1
    45    22    29    1
    46    24    25    1
    47    24    26    1
    48    24    27    1
    49    27    28    1
    50    28    51    1
    51    28    52    1
    52    28    53    1
    53    29    54    1
    54    30    55    1
    55    31    56    1
    56    32    33    1
    57    32    34    1
    58    32    35    1
    59    34    57    1
    60    34    58    1
    61    34    59    1
    62    60    61    1
