@<TRIPOS>MOLECULE
ZINC03831029
 31 30 0 0 0
SMALL
GASTEIGER

@<TRIPOS>ATOM
      1 C           2.1472    1.2069    6.1541 C.3     1  UNL1       -0.0448
      2 C           2.1463    1.2117    3.7328 C.3     1  UNL1       -0.0047
      3 C           1.3102    1.5483    2.4965 C.3     1  UNL1        0.1229
      4 H           0.3566    1.0230    2.5487 H       1  UNL1        0.0674
      5 C           2.0636    1.1140    1.2377 C.3     1  UNL1        0.1143
      6 H           2.1644    0.0287    1.2309 H       1  UNL1        0.0648
      7 C           1.2864    1.5618   -0.0018 C.3     1  UNL1        0.1116
      8 H           1.1856    2.6471    0.0050 H       1  UNL1        0.0647
      9 C           2.0397    1.1274   -1.2607 C.3     1  UNL1        0.1065
     10 H           2.1405    0.0421   -1.2675 H       1  UNL1        0.0643
     11 C           1.2625    1.5752   -2.5002 C.3     1  UNL1        0.0727
     12 O           1.9039    1.0698   -3.6729 O.3     1  UNL1       -0.3924
     13 O           3.3371    1.7263   -1.2698 O.3     1  UNL1       -0.3869
     14 O          -0.0110    0.9628    0.0073 O.3     1  UNL1       -0.3865
     15 O           3.3610    1.7129    1.2285 O.3     1  UNL1       -0.3864
     16 O           1.0759    2.9572    2.4491 O.3     1  UNL1       -0.3838
     17 H           2.4010    0.1469    6.1603 H       1  UNL1        0.0777
     18 H           3.0620    1.7996    6.1633 H       1  UNL1        0.0777
     19 H           1.5523    1.4433    7.0363 H       1  UNL1        0.0777
     20 H           2.4001    0.1518    3.7223 H       1  UNL1        0.0840
     21 H           3.0610    1.8045    3.7253 H       1  UNL1        0.0840
     22 H           0.2439    1.1907   -2.4488 H       1  UNL1        0.0584
     23 H           1.2382    2.6642   -2.5400 H       1  UNL1        0.0584
     24 H           1.4643    1.3154   -4.4984 H       1  UNL1        0.2095
     25 H           3.3240    2.6932   -1.2645 H       1  UNL1        0.2100
     26 H           0.0021   -0.0041    0.0020 H       1  UNL1        0.2100
     27 H           3.3479    2.6798    1.2338 H       1  UNL1        0.2100
     28 H           1.8823    3.4887    2.4015 H       1  UNL1        0.2101
     29 N           1.3642    1.5223    4.9444 N.4     1  UNL1        0.2267
     30 H           1.1252    2.5208    4.9465 H       1  UNL1        0.2012
     31 H           0.5025    0.9640    4.9436 H       1  UNL1        0.2012
@<TRIPOS>UNITY_ATOM_ATTR
29 1
charge 1
@<TRIPOS>BOND
     1     1    17    1
     2     1    18    1
     3     1    19    1
     4     1    29    1
     5     2     3    1
     6     2    20    1
     7     2    21    1
     8     2    29    1
     9     3     4    1
    10     3     5    1
    11     3    16    1
    12     5     6    1
    13     5     7    1
    14     5    15    1
    15     7     8    1
    16     7     9    1
    17     7    14    1
    18     9    10    1
    19     9    11    1
    20     9    13    1
    21    11    12    1
    22    11    22    1
    23    11    23    1
    24    12    24    1
    25    13    25    1
    26    14    26    1
    27    15    27    1
    28    16    28    1
    29    29    30    1
    30    29    31    1
