@<TRIPOS>MOLECULE
ZINC00608185
 45 48 0 0 0
SMALL
GASTEIGER

@<TRIPOS>ATOM
      1 C          -1.3319    2.8342   -3.7438 C.ar    1  UNL1       -0.0610
      2 C          -0.1468    2.3470   -4.2605 C.ar    1  UNL1       -0.0610
      3 C           1.0478    3.0074   -4.0197 C.ar    1  UNL1       -0.0501
      4 C           1.0536    4.1641   -3.2484 C.ar    1  UNL1        0.0362
      5 C          -0.1519    4.6565   -2.7178 C.ar    1  UNL1        0.0330
      6 C          -1.3407    3.9835   -2.9680 C.ar    1  UNL1       -0.0502
      7 C          -0.1370    5.8890   -1.8980 C.2     1  UNL1        0.1937
      8 O          -1.1735    6.3240   -1.4344 O.2     1  UNL1       -0.2868
      9 C           1.1282    6.5849   -1.6459 C.2     1  UNL1        0.0481
     10 C           2.2886    6.1185   -2.1517 C.2     1  UNL1        0.1714
     11 C           2.3139    4.8877   -2.9770 C.2     1  UNL1        0.2282
     12 O           3.3637    4.4764   -3.4280 O.2     1  UNL1       -0.2834
     13 O           3.4417    6.7818   -1.9032 O.2     1  UNL1       -0.5029
     14 C           1.1329    7.8385   -0.8097 C.3     1  UNL1       -0.0086
     15 C           0.5926    7.5224    0.5864 C.3     1  UNL1       -0.0454
     16 C          -0.8377    6.9912    0.4715 C.3     1  UNL1       -0.0457
     17 C          -1.7229    8.0490   -0.1904 C.3     1  UNL1       -0.0158
     18 C          -1.1826    8.3652   -1.5865 C.3     1  UNL1       -0.0457
     19 C           0.2476    8.8964   -1.4716 C.3     1  UNL1       -0.0454
     20 C          -3.1317    7.5259   -0.3036 C.ar    1  UNL1       -0.0442
     21 C          -3.3716    6.1663   -0.2324 C.ar    1  UNL1       -0.0569
     22 C          -4.6640    5.6863   -0.3305 C.ar    1  UNL1       -0.0431
     23 C          -5.7165    6.5659   -0.5112 C.ar    1  UNL1        0.0410
     24 C          -5.4751    7.9261   -0.5880 C.ar    1  UNL1       -0.0431
     25 C          -4.1829    8.4053   -0.4841 C.ar    1  UNL1       -0.0569
     26 CL         -7.3393    5.9633   -0.6410 Cl      1  UNL1       -0.0835
     27 H          -2.2573    2.3137   -3.9417 H       1  UNL1        0.0618
     28 H          -0.1518    1.4484   -4.8595 H       1  UNL1        0.0618
     29 H           1.9708    2.6245   -4.4294 H       1  UNL1        0.0625
     30 H          -2.2698    4.3565   -2.5630 H       1  UNL1        0.0625
     31 H           4.2016    6.3071   -2.3473 H       1  UNL1        0.2923
     32 H           2.1518    8.2169   -0.7278 H       1  UNL1        0.0351
     33 H           1.2232    6.7687    1.0580 H       1  UNL1        0.0271
     34 H           0.5959    8.4291    1.1912 H       1  UNL1        0.0271
     35 H          -1.2226    6.7659    1.4661 H       1  UNL1        0.0271
     36 H          -0.8410    6.0844   -0.1333 H       1  UNL1        0.0271
     37 H          -1.7196    8.9558    0.4144 H       1  UNL1        0.0349
     38 H          -1.8133    9.1189   -2.0581 H       1  UNL1        0.0271
     39 H          -1.1860    7.4585   -2.1914 H       1  UNL1        0.0271
     40 H           0.2509    9.8032   -0.8668 H       1  UNL1        0.0271
     41 H           0.6325    9.1216   -2.4662 H       1  UNL1        0.0271
     42 H          -2.5494    5.4794   -0.0958 H       1  UNL1        0.0621
     43 H          -4.8518    4.6244   -0.2705 H       1  UNL1        0.0632
     44 H          -6.2963    8.6132   -0.7294 H       1  UNL1        0.0632
     45 H          -3.9943    9.4670   -0.5444 H       1  UNL1        0.0621
@<TRIPOS>BOND
     1     1     6   ar
     2     1     2   ar
     3     1    27    1
     4     2     3   ar
     5     2    28    1
     6     3     4   ar
     7     3    29    1
     8     4    11    1
     9     4     5   ar
    10     5     6   ar
    11     5     7    1
    12     6    30    1
    13     7     8    2
    14     7     9    1
    15     9    10    2
    16     9    14    1
    17    10    11    1
    18    10    13    1
    19    11    12    2
    20    13    31    1
    21    14    19    1
    22    14    15    1
    23    14    32    1
    24    15    16    1
    25    15    33    1
    26    15    34    1
    27    16    17    1
    28    16    35    1
    29    16    36    1
    30    17    18    1
    31    17    20    1
    32    17    37    1
    33    18    19    1
    34    18    38    1
    35    18    39    1
    36    19    40    1
    37    19    41    1
    38    20    25   ar
    39    20    21   ar
    40    21    22   ar
    41    21    42    1
    42    22    23   ar
    43    22    43    1
    44    23    24   ar
    45    23    26    1
    46    24    25   ar
    47    24    44    1
    48    25    45    1
