@<TRIPOS>MOLECULE
ZINC00968264
 44 47 0 0 0
SMALL
GASTEIGER

@<TRIPOS>ATOM
      1 C          -0.9154    8.2170    4.4718 C.3     1  UNL1       -0.0431
      2 C          -0.3144    8.1298    2.1285 C.3     1  UNL1       -0.0284
      3 C          -0.7499    7.5682    0.7703 C.3     1  UNL1        0.0097
      4 C          -0.7127    6.0563    0.8484 C.2     1  UNL1       -0.0512
      5 C          -0.1024    5.3280   -0.0987 C.2     1  UNL1       -0.0100
      6 C          -0.0690    3.8488   -0.0172 C.ar    1  UNL1       -0.0102
      7 C          -1.2575    3.1263    0.0101 C.ar    1  UNL1       -0.0534
      8 C          -1.2252    1.7460    0.0174 C.ar    1  UNL1       -0.0611
      9 C          -0.0126    1.0758    0.0080 C.ar    1  UNL1       -0.0612
     10 C           1.1745    1.7747    0.0004 C.ar    1  UNL1       -0.0540
     11 C           1.1656    3.1755    0.0068 C.ar    1  UNL1       -0.0173
     12 C           2.4281    3.9047    0.0757 C.2     1  UNL1       -0.0534
     13 C           2.7521    5.0097   -0.5617 C.2     1  UNL1       -0.0534
     14 C           1.9260    5.7720   -1.4935 C.ar    1  UNL1       -0.0173
     15 C           0.5566    5.9813   -1.2537 C.ar    1  UNL1       -0.0102
     16 C          -0.1828    6.7949   -2.1068 C.ar    1  UNL1       -0.0534
     17 C           0.4202    7.3665   -3.2094 C.ar    1  UNL1       -0.0611
     18 C           1.7597    7.1307   -3.4737 C.ar    1  UNL1       -0.0612
     19 C           2.5119    6.3424   -2.6307 C.ar    1  UNL1       -0.0540
     20 C          -1.3928    5.3937    2.0281 C.3     1  UNL1        0.0097
     21 C          -0.9117    6.0938    3.3093 C.3     1  UNL1       -0.0284
     22 H          -1.1721    9.2720    4.3755 H       1  UNL1        0.0777
     23 H          -1.5400    7.7597    5.2391 H       1  UNL1        0.0777
     24 H           0.1334    8.1226    4.7531 H       1  UNL1        0.0777
     25 H           0.7328    7.8840    2.3047 H       1  UNL1        0.0817
     26 H          -0.4390    9.2127    2.1311 H       1  UNL1        0.0817
     27 H          -0.0670    7.9130   -0.0062 H       1  UNL1        0.0362
     28 H          -1.7629    7.8997    0.5424 H       1  UNL1        0.0362
     29 H          -2.2049    3.6447    0.0215 H       1  UNL1        0.0624
     30 H          -2.1488    1.1865    0.0346 H       1  UNL1        0.0618
     31 H           0.0021   -0.0041    0.0020 H       1  UNL1        0.0618
     32 H           2.1138    1.2417   -0.0109 H       1  UNL1        0.0624
     33 H           3.1842    3.4894    0.7255 H       1  UNL1        0.0624
     34 H           3.7425    5.3971   -0.3737 H       1  UNL1        0.0624
     35 H          -1.2281    6.9785   -1.9069 H       1  UNL1        0.0624
     36 H          -0.1545    8.0003   -3.8684 H       1  UNL1        0.0618
     37 H           2.2180    7.5684   -4.3483 H       1  UNL1        0.0618
     38 H           3.5550    6.1643   -2.8468 H       1  UNL1        0.0624
     39 H          -2.4739    5.4955    1.9339 H       1  UNL1        0.0362
     40 H          -1.1240    4.3379    2.0619 H       1  UNL1        0.0362
     41 H           0.1523    5.9053    3.4522 H       1  UNL1        0.0817
     42 H          -1.4674    5.7077    4.1639 H       1  UNL1        0.0817
     43 N          -1.1726    7.5446    3.1824 N.4     1  UNL1        0.2335
     44 H          -2.1566    7.6836    2.9246 H       1  UNL1        0.2031
@<TRIPOS>UNITY_ATOM_ATTR
43 1
charge 1
@<TRIPOS>BOND
     1     1    22    1
     2     1    23    1
     3     1    24    1
     4     1    43    1
     5     2     3    1
     6     2    25    1
     7     2    26    1
     8     2    43    1
     9     3     4    1
    10     3    27    1
    11     3    28    1
    12     4     5    2
    13     4    20    1
    14     5    15    1
    15     5     6    1
    16     6    11   ar
    17     6     7   ar
    18     7     8   ar
    19     7    29    1
    20     8     9   ar
    21     8    30    1
    22     9    10   ar
    23     9    31    1
    24    10    11   ar
    25    10    32    1
    26    11    12    1
    27    12    13    2
    28    12    33    1
    29    13    14    1
    30    13    34    1
    31    14    19   ar
    32    14    15   ar
    33    15    16   ar
    34    16    17   ar
    35    16    35    1
    36    17    18   ar
    37    17    36    1
    38    18    19   ar
    39    18    37    1
    40    19    38    1
    41    20    21    1
    42    20    39    1
    43    20    40    1
    44    21    41    1
    45    21    42    1
    46    21    43    1
    47    43    44    1
