@<TRIPOS>MOLECULE
ZINC00024947
 38 39 0 0 0
SMALL
GASTEIGER

@<TRIPOS>ATOM
      1 C          -2.5275    4.5128    4.7380 C.ar    1  UNL1       -0.0616
      2 C          -1.4243    3.6826    4.8148 C.ar    1  UNL1       -0.0600
      3 C          -0.8434    3.1950    3.6606 C.ar    1  UNL1       -0.0407
      4 C          -1.3685    3.5394    2.4216 C.ar    1  UNL1        0.0300
      5 C          -2.4736    4.3778    2.3479 C.ar    1  UNL1       -0.0407
      6 C          -3.0528    4.8577    3.5061 C.ar    1  UNL1       -0.0600
      7 N          -0.7832    3.0484    1.2523 N.pl3   1  UNL1       -0.3198
      8 C          -0.7300    1.5798    1.2666 C.3     1  UNL1        0.0525
      9 C          -0.0127    1.0858    0.0080 C.3     1  UNL1       -0.0157
     10 C          -0.7771    3.0416   -1.1959 C.3     1  UNL1       -0.0157
     11 C          -1.4948    3.5356    0.0624 C.3     1  UNL1        0.0525
     12 C          -0.1087    1.0567   -2.4117 C.3     1  UNL1       -0.0030
     13 C          -1.0112    1.3738   -3.6058 C.3     1  UNL1        0.1177
     14 H          -1.1382    2.4532   -3.6886 H       1  UNL1        0.0670
     15 C          -0.3700    0.8359   -4.8866 C.3     1  UNL1        0.0751
     16 O          -1.1531    1.2326   -6.0142 O.3     1  UNL1       -0.3923
     17 O          -2.2863    0.7572   -3.4162 O.3     1  UNL1       -0.3842
     18 H          -2.9801    4.8925    5.6421 H       1  UNL1        0.0618
     19 H          -1.0167    3.4149    5.7784 H       1  UNL1        0.0618
     20 H           0.0184    2.5469    3.7213 H       1  UNL1        0.0636
     21 H          -2.8817    4.6511    1.3860 H       1  UNL1        0.0636
     22 H          -3.9145    5.5063    3.4497 H       1  UNL1        0.0618
     23 H          -1.7436    1.1797    1.2882 H       1  UNL1        0.0516
     24 H          -0.1871    1.2439    2.1500 H       1  UNL1        0.0516
     25 H           0.0021   -0.0041    0.0020 H       1  UNL1        0.0830
     26 H           1.0098    1.4634    0.0003 H       1  UNL1        0.0830
     27 H           0.2366    3.4417   -1.2171 H       1  UNL1        0.0830
     28 H          -1.3193    3.3776   -2.0798 H       1  UNL1        0.0830
     29 H          -1.5096    4.6255    0.0684 H       1  UNL1        0.0516
     30 H          -2.5172    3.1577    0.0699 H       1  UNL1        0.0516
     31 H           0.8639    1.5270   -2.5563 H       1  UNL1        0.0841
     32 H           0.0184   -0.0227   -2.3288 H       1  UNL1        0.0841
     33 H           0.6382    1.2383   -4.9849 H       1  UNL1        0.0585
     34 H          -0.3241   -0.2521   -4.8408 H       1  UNL1        0.0585
     35 H          -0.8049    0.9257   -6.8625 H       1  UNL1        0.2095
     36 H          -2.2493   -0.2056   -3.3342 H       1  UNL1        0.2101
     37 N          -0.7507    1.5640   -1.1802 N.4     1  UNL1        0.2393
     38 H          -1.7148    1.2133   -1.1378 H       1  UNL1        0.2035
@<TRIPOS>UNITY_ATOM_ATTR
37 1
charge 1
@<TRIPOS>BOND
     1     1     6   ar
     2     1     2   ar
     3     1    18    1
     4     2     3   ar
     5     2    19    1
     6     3     4   ar
     7     3    20    1
     8     4     5   ar
     9     4     7    1
    10     5     6   ar
    11     5    21    1
    12     6    22    1
    13     7    11    1
    14     7     8    1
    15     8     9    1
    16     8    23    1
    17     8    24    1
    18     9    25    1
    19     9    26    1
    20     9    37    1
    21    10    11    1
    22    10    27    1
    23    10    28    1
    24    10    37    1
    25    11    29    1
    26    11    30    1
    27    12    13    1
    28    12    31    1
    29    12    32    1
    30    12    37    1
    31    13    14    1
    32    13    15    1
    33    13    17    1
    34    15    16    1
    35    15    33    1
    36    15    34    1
    37    16    35    1
    38    17    36    1
    39    37    38    1
