@<TRIPOS>MOLECULE
ZINC03830958
 56 56 0 0 0
SMALL
GASTEIGER

@<TRIPOS>ATOM
      1 C          -2.9313   -5.1330    2.5832 C.3     1  UNL1        0.0036
      2 N          -3.8330   -5.4184    1.4643 N.am    1  UNL1       -0.2980
      3 C          -5.0621   -6.1828    1.6907 C.3     1  UNL1        0.0428
      4 C          -4.7761   -7.6745    1.5068 C.3     1  UNL1        0.0939
      5 H          -4.3352   -7.8415    0.5240 H       1  UNL1        0.0632
      6 C          -6.0829   -8.4621    1.6199 C.3     1  UNL1        0.0716
      7 O          -5.8351   -9.8399    1.3332 O.3     1  UNL1       -0.3924
      8 O          -3.8665   -8.1133    2.5177 O.3     1  UNL1       -0.3880
      9 C          -3.5318   -4.9777    0.2268 C.2     1  UNL1        0.2485
     10 O          -4.2799   -5.2145   -0.7016 O.2     1  UNL1       -0.2699
     11 C          -2.2920   -4.2067   -0.0015 C.ar    1  UNL1        0.0656
     12 C          -1.1091   -4.8680   -0.3296 C.ar    1  UNL1        0.0397
     13 C           0.0579   -4.1364   -0.5446 C.ar    1  UNL1        0.0654
     14 C           0.0371   -2.7436   -0.4361 C.ar    1  UNL1        0.0487
     15 C          -1.1402   -2.0896   -0.1040 C.ar    1  UNL1        0.0615
     16 C          -2.3037   -2.8144    0.1107 C.ar    1  UNL1        0.0487
     17 I          -4.0801   -1.8195    0.6043 I       1  UNL1       -0.0411
     18 N          -1.1558   -0.6938    0.0094 N.am    1  UNL1       -0.2819
     19 C          -0.9102   -0.1116    1.1998 C.2     1  UNL1        0.2430
     20 O          -0.7667   -0.7954    2.1912 O.2     1  UNL1       -0.2729
     21 C          -0.8140    1.3891    1.2991 C.3     1  UNL1        0.1236
     22 O          -0.5498    1.7609    2.6534 O.3     1  UNL1       -0.3738
     23 C          -0.4393    3.1708    2.8580 C.3     1  UNL1        0.0371
     24 I           1.7881   -1.6421   -0.7679 I       1  UNL1       -0.0411
     25 C           1.3138   -4.8327   -0.8930 C.2     1  UNL1        0.2462
     26 O           1.5916   -5.0384   -2.0585 O.2     1  UNL1       -0.2701
     27 N           2.1514   -5.2397    0.0813 N.am    1  UNL1       -0.3088
     28 C           3.3966   -5.9299   -0.2641 C.3     1  UNL1        0.0401
     29 C           4.1573   -6.2808    1.0162 C.3     1  UNL1        0.0936
     30 H           3.5418   -6.9310    1.6379 H       1  UNL1        0.0632
     31 C           5.4577   -7.0017    0.6554 C.3     1  UNL1        0.0716
     32 O           6.1112   -7.4322    1.8511 O.3     1  UNL1       -0.3924
     33 O           4.4601   -5.0827    1.7338 O.3     1  UNL1       -0.3880
     34 I          -1.0856   -6.9561   -0.4985 I       1  UNL1       -0.0422
     35 H          -3.2163   -4.1891    3.0478 H       1  UNL1        0.0429
     36 H          -2.9994   -5.9350    3.3183 H       1  UNL1        0.0429
     37 H          -1.9075   -5.0627    2.2159 H       1  UNL1        0.0429
     38 H          -5.4198   -6.0037    2.7046 H       1  UNL1        0.0491
     39 H          -5.8226   -5.8679    0.9761 H       1  UNL1        0.0491
     40 H          -6.4782   -8.3668    2.6313 H       1  UNL1        0.0583
     41 H          -6.8078   -8.0675    0.9079 H       1  UNL1        0.0583
     42 H          -6.6214  -10.4003    1.3863 H       1  UNL1        0.2095
     43 H          -4.1939   -7.9947    3.4198 H       1  UNL1        0.2099
     44 H          -1.3434   -0.1460   -0.7689 H       1  UNL1        0.1549
     45 H          -0.0054    1.7444    0.6604 H       1  UNL1        0.0656
     46 H          -1.7546    1.8356    0.9767 H       1  UNL1        0.0656
     47 H           0.3772    3.5631    2.2517 H       1  UNL1        0.0524
     48 H          -1.3721    3.6543    2.5679 H       1  UNL1        0.0524
     49 H          -0.2385    3.3705    3.9106 H       1  UNL1        0.0524
     50 H           1.9297   -5.0755    1.0113 H       1  UNL1        0.1491
     51 H           3.1656   -6.8438   -0.8115 H       1  UNL1        0.0488
     52 H           4.0120   -5.2797   -0.8858 H       1  UNL1        0.0488
     53 H           5.2325   -7.8674    0.0326 H       1  UNL1        0.0583
     54 H           6.1109   -6.3212    0.1092 H       1  UNL1        0.0583
     55 H           6.9446   -7.8980    1.6979 H       1  UNL1        0.2095
     56 H           5.0063   -4.4559    1.2401 H       1  UNL1        0.2099
@<TRIPOS>BOND
     1     1     2    1
     2     1    35    1
     3     1    36    1
     4     1    37    1
     5     2     3    1
     6     2     9   am
     7     3     4    1
     8     3    38    1
     9     3    39    1
    10     4     5    1
    11     4     6    1
    12     4     8    1
    13     6     7    1
    14     6    40    1
    15     6    41    1
    16     7    42    1
    17     8    43    1
    18     9    10    2
    19     9    11    1
    20    11    16   ar
    21    11    12   ar
    22    12    13   ar
    23    12    34    1
    24    13    14   ar
    25    13    25    1
    26    14    15   ar
    27    14    24    1
    28    15    16   ar
    29    15    18    1
    30    16    17    1
    31    18    19   am
    32    18    44    1
    33    19    20    2
    34    19    21    1
    35    21    22    1
    36    21    45    1
    37    21    46    1
    38    22    23    1
    39    23    47    1
    40    23    48    1
    41    23    49    1
    42    25    26    2
    43    25    27   am
    44    27    28    1
    45    27    50    1
    46    28    29    1
    47    28    51    1
    48    28    52    1
    49    29    30    1
    50    29    31    1
    51    29    33    1
    52    31    32    1
    53    31    53    1
    54    31    54    1
    55    32    55    1
    56    33    56    1
