@<TRIPOS>MOLECULE
ZINC04215367
 62 64 0 0 0
SMALL
GASTEIGER

@<TRIPOS>ATOM
      1 C           2.6585    7.0315   -4.5888 C.3     1  UNL1        0.0788
      2 O           2.3767    5.7520   -4.0184 O.3     1  UNL1       -0.4943
      3 C           1.4359    4.9953   -4.6373 C.ar    1  UNL1        0.1340
      4 C           0.7954    5.4702   -5.7686 C.ar    1  UNL1        0.0029
      5 C          -0.1672    4.6913   -6.3977 C.ar    1  UNL1        0.0466
      6 C          -0.4908    3.4319   -5.8934 C.ar    1  UNL1        0.0625
      7 C           0.1393    2.9518   -4.7813 C.ar    1  UNL1       -0.0259
      8 C           1.1070    3.7274   -4.1333 C.ar    1  UNL1        0.0797
      9 C           1.7822    3.2128   -2.9306 C.2     1  UNL1        0.2479
     10 O           2.6267    3.8868   -2.3719 O.2     1  UNL1       -0.2701
     11 N           1.4647    1.9949   -2.4485 N.am    1  UNL1       -0.3055
     12 C           2.1366    1.4828   -1.2517 C.3     1  UNL1        0.0594
     13 H           3.1721    1.8230   -1.2416 H       1  UNL1        0.0528
     14 C           1.4174    1.9953   -0.0008 C.3     1  UNL1        0.0085
     15 C          -0.0178    1.4642    0.0101 C.3     1  UNL1       -0.0300
     16 C           0.6459   -0.5197   -1.2129 C.3     1  UNL1       -0.0032
     17 C           2.1009   -0.0479   -1.2603 C.3     1  UNL1        0.1163
     18 H           2.6356   -0.4293   -0.3904 H       1  UNL1        0.0668
     19 O           2.7211   -0.5329   -2.4528 O.3     1  UNL1       -0.3727
     20 C           3.3442   -1.8104   -2.3057 C.3     1  UNL1        0.0371
     21 C          -1.3536   -0.5498    0.1516 C.3     1  UNL1       -0.0287
     22 C          -2.1868   -0.1903   -1.0802 C.3     1  UNL1        0.0217
     23 C          -3.5988   -0.7586   -0.9245 C.3     1  UNL1        0.0944
     24 O          -4.3770   -0.4229   -2.0750 O.3     1  UNL1       -0.4918
     25 C          -5.6655   -0.8557   -2.0963 C.ar    1  UNL1        0.1207
     26 C          -6.1678   -1.5931   -1.0342 C.ar    1  UNL1       -0.0172
     27 C          -7.4792   -2.0271   -1.0544 C.ar    1  UNL1       -0.0230
     28 C          -8.2886   -1.7364   -2.1394 C.ar    1  UNL1        0.1236
     29 C          -7.7868   -1.0057   -3.2030 C.ar    1  UNL1       -0.0230
     30 C          -6.4775   -0.5653   -3.1827 C.ar    1  UNL1       -0.0172
     31 F          -9.5694   -2.1658   -2.1602 F       1  UNL1       -0.2055
     32 CL         -1.6952    2.4666   -6.6881 Cl      1  UNL1       -0.0816
     33 N          -0.8105    5.1687   -7.5352 N.pl3   1  UNL1       -0.3567
     34 H           3.0123    6.9033   -5.6118 H       1  UNL1        0.0660
     35 H           1.7515    7.6360   -4.5911 H       1  UNL1        0.0660
     36 H           3.4267    7.5312   -3.9986 H       1  UNL1        0.0660
     37 H           1.0440    6.4449   -6.1619 H       1  UNL1        0.0673
     38 H          -0.1128    1.9739   -4.3985 H       1  UNL1        0.0641
     39 H           0.7912    1.4575   -2.8941 H       1  UNL1        0.1494
     40 H           1.4021    3.0851   -0.0105 H       1  UNL1        0.0336
     41 H           1.9414    1.6460    0.8890 H       1  UNL1        0.0336
     42 H          -0.5453    1.8252   -0.8729 H       1  UNL1        0.0815
     43 H          -0.5283    1.8156    0.9068 H       1  UNL1        0.0815
     44 H           0.6175   -1.6093   -1.2045 H       1  UNL1        0.0841
     45 H           0.1154   -0.1493   -2.0902 H       1  UNL1        0.0841
     46 H           3.7914   -2.1080   -3.2542 H       1  UNL1        0.0524
     47 H           4.1192   -1.7509   -1.5415 H       1  UNL1        0.0524
     48 H           2.5974   -2.5469   -2.0092 H       1  UNL1        0.0524
     49 H          -1.3000   -1.6340    0.2502 H       1  UNL1        0.0815
     50 H          -1.8195   -0.1266    1.0415 H       1  UNL1        0.0815
     51 H          -2.2404    0.8939   -1.1788 H       1  UNL1        0.0350
     52 H          -1.7209   -0.6134   -1.9702 H       1  UNL1        0.0350
     53 H          -3.5452   -1.8428   -0.8259 H       1  UNL1        0.0698
     54 H          -4.0647   -0.3355   -0.0346 H       1  UNL1        0.0698
     55 H          -5.5352   -1.8241   -0.1899 H       1  UNL1        0.0655
     56 H          -7.8718   -2.5975   -0.2256 H       1  UNL1        0.0647
     57 H          -8.4192   -0.7797   -4.0488 H       1  UNL1        0.0647
     58 H          -6.0865    0.0053   -4.0121 H       1  UNL1        0.0655
     59 H          -0.5865    6.0442   -7.8875 H       1  UNL1        0.1424
     60 H          -1.4830    4.6261   -7.9758 H       1  UNL1        0.1424
     61 N           0.0175   -0.0138    0.0259 N.4     1  UNL1        0.2372
     62 H           0.5724   -0.3251    0.8318 H       1  UNL1        0.2034
@<TRIPOS>UNITY_ATOM_ATTR
61 1
charge 1
@<TRIPOS>BOND
     1     1     2    1
     2     1    34    1
     3     1    35    1
     4     1    36    1
     5     2     3    1
     6     3     8   ar
     7     3     4   ar
     8     4     5   ar
     9     4    37    1
    10     5     6   ar
    11     5    33    1
    12     6     7   ar
    13     6    32    1
    14     7     8   ar
    15     7    38    1
    16     8     9    1
    17     9    10    2
    18     9    11   am
    19    11    12    1
    20    11    39    1
    21    12    13    1
    22    12    17    1
    23    12    14    1
    24    14    15    1
    25    14    40    1
    26    14    41    1
    27    15    42    1
    28    15    43    1
    29    15    61    1
    30    16    17    1
    31    16    44    1
    32    16    45    1
    33    16    61    1
    34    17    18    1
    35    17    19    1
    36    19    20    1
    37    20    46    1
    38    20    47    1
    39    20    48    1
    40    21    22    1
    41    21    49    1
    42    21    50    1
    43    21    61    1
    44    22    23    1
    45    22    51    1
    46    22    52    1
    47    23    24    1
    48    23    53    1
    49    23    54    1
    50    24    25    1
    51    25    30   ar
    52    25    26   ar
    53    26    27   ar
    54    26    55    1
    55    27    28   ar
    56    27    56    1
    57    28    29   ar
    58    28    31    1
    59    29    30   ar
    60    29    57    1
    61    30    58    1
    62    33    59    1
    63    33    60    1
    64    61    62    1
