@<TRIPOS>MOLECULE
ZINC03794601
 46 48 0 0 0
SMALL
GASTEIGER

@<TRIPOS>ATOM
      1 C          -1.2020    3.6594   -5.0046 C.3     1  UNL1       -0.0433
      2 C           0.2150    5.6186   -4.8768 C.3     1  UNL1       -0.0433
      3 C          -0.5941    4.5752   -2.8472 C.3     1  UNL1       -0.0323
      4 C          -0.7379    3.2285   -2.1355 C.3     1  UNL1       -0.0093
      5 C          -1.1884    3.4601   -0.6918 C.3     1  UNL1       -0.0105
      6 C          -1.3322    2.1133    0.0199 C.3     1  UNL1        0.1202
      7 C          -1.8005    2.3230    1.4415 C.ar    1  UNL1       -0.0060
      8 C          -1.1434    2.7119    2.5928 C.ar    1  UNL1       -0.0540
      9 C          -1.8359    2.8235    3.7810 C.ar    1  UNL1       -0.0440
     10 C          -3.2034    2.5425    3.8187 C.ar    1  UNL1        0.0521
     11 C          -3.8620    2.1498    2.6512 C.ar    1  UNL1       -0.0386
     12 C          -3.1591    2.0424    1.4721 C.ar    1  UNL1       -0.0144
     13 C          -3.5677    1.6517    0.0707 C.3     1  UNL1        0.0747
     14 O          -2.3484    1.3202   -0.6203 O.3     1  UNL1       -0.3595
     15 C          -3.9274    2.6571    5.0488 C.1     1  UNL1        0.0992
     16 N          -4.5018    2.7479    6.0247 N.1     1  UNL1       -0.1909
     17 C          -0.0167    1.3782    0.0096 C.ar    1  UNL1       -0.0113
     18 C           1.1704    2.0867    0.0021 C.ar    1  UNL1       -0.0528
     19 C           2.3773    1.4138   -0.0131 C.ar    1  UNL1       -0.0261
     20 C           2.3973    0.0293   -0.0212 C.ar    1  UNL1        0.1234
     21 C           1.2078   -0.6792   -0.0136 C.ar    1  UNL1       -0.0261
     22 C           0.0021   -0.0041    0.0020 C.ar    1  UNL1       -0.0528
     23 F           3.5766   -0.6296   -0.0370 F       1  UNL1       -0.2055
     24 H          -2.1099    4.2625   -5.0142 H       1  UNL1        0.0777
     25 H          -0.8559    3.5075   -6.0269 H       1  UNL1        0.0777
     26 H          -1.4121    2.6937   -4.5448 H       1  UNL1        0.0777
     27 H           1.0350    6.0772   -4.3242 H       1  UNL1        0.0777
     28 H           0.5311    5.4251   -5.9019 H       1  UNL1        0.0777
     29 H          -0.6416    6.2927   -4.8818 H       1  UNL1        0.0777
     30 H          -1.5539    5.0919   -2.8445 H       1  UNL1        0.0814
     31 H           0.1472    5.1830   -2.3284 H       1  UNL1        0.0814
     32 H           0.2218    2.7118   -2.1383 H       1  UNL1        0.0318
     33 H          -1.4793    2.6207   -2.6544 H       1  UNL1        0.0318
     34 H          -2.1481    3.9768   -0.6891 H       1  UNL1        0.0301
     35 H          -0.4471    4.0678   -0.1730 H       1  UNL1        0.0301
     36 H          -0.0858    2.9286    2.5628 H       1  UNL1        0.0622
     37 H          -1.3212    3.1273    4.6806 H       1  UNL1        0.0630
     38 H          -4.9194    1.9313    2.6732 H       1  UNL1        0.0634
     39 H          -4.2303    0.7867    0.1001 H       1  UNL1        0.0610
     40 H          -4.0626    2.4880   -0.4231 H       1  UNL1        0.0610
     41 H           1.1545    3.1666    0.0077 H       1  UNL1        0.0622
     42 H           3.3046    1.9675   -0.0187 H       1  UNL1        0.0646
     43 H           1.2222   -1.7591   -0.0203 H       1  UNL1        0.0646
     44 H          -0.9259   -0.5565    0.0079 H       1  UNL1        0.0622
     45 N          -0.1384    4.3360   -4.2328 N.4     1  UNL1        0.2309
     46 H           0.6927    3.7335   -4.2112 H       1  UNL1        0.2028
@<TRIPOS>UNITY_ATOM_ATTR
45 1
charge 1
@<TRIPOS>BOND
     1     1    24    1
     2     1    25    1
     3     1    26    1
     4     1    45    1
     5     2    27    1
     6     2    28    1
     7     2    29    1
     8     2    45    1
     9     3     4    1
    10     3    30    1
    11     3    31    1
    12     3    45    1
    13     4     5    1
    14     4    32    1
    15     4    33    1
    16     5     6    1
    17     5    34    1
    18     5    35    1
    19     6    14    1
    20     6     7    1
    21     6    17    1
    22     7    12   ar
    23     7     8   ar
    24     8     9   ar
    25     8    36    1
    26     9    10   ar
    27     9    37    1
    28    10    11   ar
    29    10    15    1
    30    11    12   ar
    31    11    38    1
    32    12    13    1
    33    13    14    1
    34    13    39    1
    35    13    40    1
    36    15    16    3
    37    17    22   ar
    38    17    18   ar
    39    18    19   ar
    40    18    41    1
    41    19    20   ar
    42    19    42    1
    43    20    21   ar
    44    20    23    1
    45    21    22   ar
    46    21    43    1
    47    22    44    1
    48    45    46    1
