@<TRIPOS>MOLECULE
ZINC11592837
 53 56 0 0 0
SMALL
GASTEIGER

@<TRIPOS>ATOM
      1 C           0.2475   -1.0594    3.7632 C.3     1  UNL1        0.0333
      2 C           0.2791    0.0428    2.7359 C.2     1  UNL1        0.3054
      3 O           1.3378    0.4777    2.3488 O.2     1  UNL1       -0.2511
      4 O          -0.8690    0.5413    2.2509 O.3     1  UNL1       -0.4447
      5 C          -0.7628    1.5998    1.2656 C.3     1  UNL1        0.1784
      6 C          -0.0127    1.0847    0.0080 C.3     1  UNL1       -0.0005
      7 C          -0.7938    1.6173   -1.2198 C.3     1  UNL1       -0.0447
      8 C          -1.7918    2.6266   -0.6217 C.3     1  UNL1       -0.0278
      9 H          -1.2910    3.5904   -0.4666 H       1  UNL1        0.0310
     10 C          -2.1515    1.9661    0.7247 C.3     1  UNL1        0.0223
     11 C          -2.9967    2.8906    1.5638 C.3     1  UNL1       -0.0425
     12 C          -3.5608    4.0073    0.6625 C.3     1  UNL1       -0.0487
     13 C          -4.1390    3.3715   -0.6007 C.3     1  UNL1       -0.0314
     14 H          -4.6684    2.4773   -0.2312 H       1  UNL1        0.0309
     15 C          -3.0370    2.8323   -1.4818 C.3     1  UNL1       -0.0339
     16 H          -3.3497    1.8745   -1.9057 H       1  UNL1        0.0307
     17 C          -2.6414    3.7502   -2.6297 C.3     1  UNL1       -0.0460
     18 C          -3.8368    4.2365   -3.4291 C.3     1  UNL1       -0.0308
     19 C          -4.8146    4.9079   -2.4857 C.2     1  UNL1       -0.0629
     20 C          -5.2615    6.1225   -2.8050 C.2     1  UNL1       -0.0197
     21 C          -6.3067    6.7679   -2.0051 C.2     1  UNL1        0.1561
     22 O          -6.6098    7.9317   -2.1835 O.2     1  UNL1       -0.2927
     23 C          -6.9947    5.9344   -0.9445 C.3     1  UNL1        0.0104
     24 C          -5.9273    5.0903   -0.2457 C.3     1  UNL1       -0.0392
     25 C          -5.2220    4.1869   -1.2450 C.3     1  UNL1       -0.0160
     26 H          -5.9825    3.4638   -1.5673 H       1  UNL1        0.0349
     27 C          -2.9169    0.6518    0.4921 C.3     1  UNL1       -0.0547
     28 C          -0.0566    2.7584    1.8229 C.1     1  UNL1       -0.0576
     29 C           0.5085    3.6857    2.2689 C.1     1  UNL1       -0.1152
     30 H           0.2530   -2.0259    3.2594 H       1  UNL1        0.0342
     31 H           1.1230   -0.9805    4.4077 H       1  UNL1        0.0342
     32 H          -0.6564   -0.9688    4.3656 H       1  UNL1        0.0342
     33 H           0.0021   -0.0041    0.0020 H       1  UNL1        0.0314
     34 H           1.0051    1.4729    0.0004 H       1  UNL1        0.0314
     35 H          -0.1141    2.1239   -1.9113 H       1  UNL1        0.0270
     36 H          -1.3112    0.8112   -1.7360 H       1  UNL1        0.0270
     37 H          -3.8413    2.3287    1.9899 H       1  UNL1        0.0272
     38 H          -2.4386    3.3339    2.3837 H       1  UNL1        0.0272
     39 H          -4.3363    4.5402    1.2097 H       1  UNL1        0.0268
     40 H          -2.7640    4.6980    0.3933 H       1  UNL1        0.0268
     41 H          -2.1125    4.6135   -2.2163 H       1  UNL1        0.0271
     42 H          -1.9571    3.2163   -3.2924 H       1  UNL1        0.0271
     43 H          -3.5072    4.9579   -4.1804 H       1  UNL1        0.0310
     44 H          -4.3207    3.3955   -3.9267 H       1  UNL1        0.0310
     45 H          -4.8838    6.6173   -3.6900 H       1  UNL1        0.0652
     46 H          -7.4473    6.5378   -0.2880 H       1  UNL1        0.0345
     47 H          -7.7356    5.2825   -1.4085 H       1  UNL1        0.0345
     48 H          -5.1996    5.7589    0.2120 H       1  UNL1        0.0275
     49 H          -6.3994    4.4787    0.5195 H       1  UNL1        0.0275
     50 H          -2.2952   -0.0337   -0.0838 H       1  UNL1        0.0237
     51 H          -3.1626    0.1994    1.4529 H       1  UNL1        0.0237
     52 H          -3.8352    0.8584   -0.0576 H       1  UNL1        0.0237
     53 H           1.0140    4.5151    2.6678 H       1  UNL1        0.1229
@<TRIPOS>BOND
     1     1     2    1
     2     1    30    1
     3     1    31    1
     4     1    32    1
     5     2     3    2
     6     2     4    1
     7     4     5    1
     8     5    10    1
     9     5     6    1
    10     5    28    1
    11     6     7    1
    12     6    33    1
    13     6    34    1
    14     7     8    1
    15     7    35    1
    16     7    36    1
    17     8     9    1
    18     8    15    1
    19     8    10    1
    20    10    11    1
    21    10    27    1
    22    11    12    1
    23    11    37    1
    24    11    38    1
    25    12    13    1
    26    12    39    1
    27    12    40    1
    28    13    14    1
    29    13    25    1
    30    13    15    1
    31    15    16    1
    32    15    17    1
    33    17    18    1
    34    17    41    1
    35    17    42    1
    36    18    19    1
    37    18    43    1
    38    18    44    1
    39    19    25    1
    40    19    20    2
    41    20    21    1
    42    20    45    1
    43    21    22    2
    44    21    23    1
    45    23    24    1
    46    23    46    1
    47    23    47    1
    48    24    25    1
    49    24    48    1
    50    24    49    1
    51    25    26    1
    52    27    50    1
    53    27    51    1
    54    27    52    1
    55    28    29    3
    56    29    53    1
