@<TRIPOS>MOLECULE
ZINC02021839
 62 64 0 0 0
SMALL
GASTEIGER

@<TRIPOS>ATOM
      1 C           5.1809   -0.2560    1.9135 C.3     1  UNL1       -0.0306
      2 C           5.1812    1.1892    1.4114 C.3     1  UNL1        0.0899
      3 O           4.8844    2.0851    2.5149 O.3     1  UNL1       -0.4610
      4 C           4.8465    3.3984    2.2403 C.2     1  UNL1        0.3560
      5 O           5.0545    3.7867    1.1152 O.2     1  UNL1       -0.2444
      6 C           4.5446    4.3887    3.3354 C.3     1  UNL1        0.0770
      7 H           5.2979    4.3051    4.1188 H       1  UNL1        0.0969
      8 C           3.1630    4.0939    3.9229 C.3     1  UNL1        0.0048
      9 C           2.9082    5.0179    5.1155 C.3     1  UNL1       -0.0220
     10 C           1.5474    4.7275    5.6942 C.ar    1  UNL1       -0.0471
     11 C           0.4383    5.4083    5.2277 C.ar    1  UNL1       -0.0586
     12 C          -0.8101    5.1412    5.7579 C.ar    1  UNL1       -0.0615
     13 C          -0.9492    4.1949    6.7558 C.ar    1  UNL1       -0.0617
     14 C           0.1601    3.5155    7.2236 C.ar    1  UNL1       -0.0615
     15 C           1.4084    3.7818    6.6928 C.ar    1  UNL1       -0.0586
     16 CA          5.9272    6.2904    2.7571 C.3     1  UNL1        0.0531
     17 HA          6.6320    5.4870    2.5429 H       1  UNL1        0.0947
     18 CB          6.2569    6.9088    4.1172 C.3     1  UNL1       -0.0129
     19 C           6.0291    7.3467    1.6871 C.2     1  UNL1        0.2643
     20 O           5.0240    7.8663    1.2503 O.2     1  UNL1       -0.2694
     21 N           7.2371    7.7140    1.2156 N.am    1  UNL1       -0.2840
     22 C           8.4671    7.0621    1.6778 C.3     1  UNL1        0.0408
     23 C           9.5224    8.0976    1.9541 C.ar    1  UNL1       -0.0268
     24 C          10.6737    7.6893    2.6141 C.ar    1  UNL1       -0.0568
     25 C          11.6812    8.5912    2.8878 C.ar    1  UNL1       -0.0614
     26 C          11.5425    9.9116    2.5020 C.ar    1  UNL1       -0.0615
     27 C          10.3972   10.3193    1.8509 C.ar    1  UNL1       -0.0582
     28 C           9.3794    9.4136    1.5763 C.ar    1  UNL1       -0.0406
     29 C           8.1549    9.9328    0.8698 C.3     1  UNL1       -0.0034
     30 CA          7.3760    8.7901    0.2203 C.3     1  UNL1        0.0699
     31 HA          7.9191    8.4201   -0.6494 H       1  UNL1        0.0565
     32 C           6.0125    9.2760   -0.1990 C.2     1  UNL1        0.0625
     33 O           5.2124    8.5009   -0.6669 O.co2   1  UNL1       -0.5479
     34 H           5.4037   -0.9285    1.0851 H       1  UNL1        0.0262
     35 H           5.9382   -0.3714    2.6889 H       1  UNL1        0.0262
     36 H           4.2006   -0.4978    2.3242 H       1  UNL1        0.0262
     37 H           4.4239    1.3046    0.6359 H       1  UNL1        0.0694
     38 H           6.1615    1.4310    1.0007 H       1  UNL1        0.0694
     39 H           3.1223    3.0557    4.2525 H       1  UNL1        0.0329
     40 H           2.4009    4.2639    3.1624 H       1  UNL1        0.0329
     41 H           2.9489    6.0561    4.7860 H       1  UNL1        0.0315
     42 H           3.6702    4.8480    5.8761 H       1  UNL1        0.0315
     43 H           0.5470    6.1474    4.4478 H       1  UNL1        0.0620
     44 H          -1.6774    5.6688    5.3893 H       1  UNL1        0.0618
     45 H          -1.9245    3.9865    7.1703 H       1  UNL1        0.0618
     46 H           0.0514    2.7764    8.0035 H       1  UNL1        0.0618
     47 H           2.2750    3.2508    7.0580 H       1  UNL1        0.0620
     48 HB1         7.2986    7.2295    4.1277 H       1  UNL1        0.0289
     49 HB2         5.6102    7.7688    4.2917 H       1  UNL1        0.0289
     50 HB3         6.0967    6.1687    4.9013 H       1  UNL1        0.0289
     51 H           8.2605    6.5031    2.5905 H       1  UNL1        0.0514
     52 H           8.8268    6.3790    0.9083 H       1  UNL1        0.0514
     53 H          10.7812    6.6579    2.9159 H       1  UNL1        0.0621
     54 H          12.5742    8.2672    3.4016 H       1  UNL1        0.0618
     55 H          12.3290   10.6219    2.7100 H       1  UNL1        0.0618
     56 H          10.2906   11.3513    1.5509 H       1  UNL1        0.0620
     57 H           8.4589   10.6424    0.1003 H       1  UNL1        0.0335
     58 H           7.5135   10.4393    1.5911 H       1  UNL1        0.0335
     59 N           4.5529    5.7551    2.7797 N.4     1  UNL1        0.2457
     60 H1          3.9629    6.3611    3.3619 H       1  UNL1        0.2030
     61 H2          4.1820    5.7337    1.8225 H       1  UNL1        0.2030
     62 OXT         5.6869   10.5700   -0.0527 O.co2   1  UNL1       -0.5479
@<TRIPOS>UNITY_ATOM_ATTR
59 1
charge 1
62 1
charge -1
@<TRIPOS>BOND
     1     1     2    1
     2     1    34    1
     3     1    35    1
     4     1    36    1
     5     2     3    1
     6     2    37    1
     7     2    38    1
     8     3     4    1
     9     4     5    2
    10     4     6    1
    11     6     7    1
    12     6     8    1
    13     6    59    1
    14     8     9    1
    15     8    39    1
    16     8    40    1
    17     9    10    1
    18     9    41    1
    19     9    42    1
    20    10    15   ar
    21    10    11   ar
    22    11    12   ar
    23    11    43    1
    24    12    13   ar
    25    12    44    1
    26    13    14   ar
    27    13    45    1
    28    14    15   ar
    29    14    46    1
    30    15    47    1
    31    16    17    1
    32    16    18    1
    33    16    19    1
    34    16    59    1
    35    18    48    1
    36    18    49    1
    37    18    50    1
    38    19    20    2
    39    19    21   am
    40    21    30    1
    41    21    22    1
    42    22    23    1
    43    22    51    1
    44    22    52    1
    45    23    28   ar
    46    23    24   ar
    47    24    25   ar
    48    24    53    1
    49    25    26   ar
    50    25    54    1
    51    26    27   ar
    52    26    55    1
    53    27    28   ar
    54    27    56    1
    55    28    29    1
    56    29    30    1
    57    29    57    1
    58    29    58    1
    59    30    31    1
    60    30    32    1
    61    32    33   ar
    62    32    62   ar
    63    59    60    1
    64    59    61    1
