@<TRIPOS>MOLECULE
ZINC00896543
 49 50 0 0 0
SMALL
GASTEIGER

@<TRIPOS>ATOM
      1 C          -3.8863    8.0348    5.4750 C.ar    1  UNL1       -0.0164
      2 C          -3.5084    8.9869    4.5491 C.ar    1  UNL1       -0.0157
      3 C          -2.9752    8.5991    3.3296 C.ar    1  UNL1        0.1332
      4 C          -2.8313    7.2370    3.0338 C.ar    1  UNL1        0.0817
      5 C          -3.2161    6.2804    3.9760 C.ar    1  UNL1       -0.0043
      6 C          -3.7410    6.6828    5.1904 C.ar    1  UNL1        0.1219
      7 O          -4.1157    5.7525    6.1088 O.3     1  UNL1       -0.4830
      8 C          -4.6502    6.2371    7.3422 C.3     1  UNL1        0.1842
      9 C          -5.0121    5.0533    8.2414 C.3     1  UNL1        0.4236
     10 F          -3.8652    4.2939    8.4965 F       1  UNL1       -0.1671
     11 F          -5.5354    5.5278    9.4490 F       1  UNL1       -0.1671
     12 F          -5.9665    4.2558    7.6008 F       1  UNL1       -0.1671
     13 C          -2.2704    6.8154    1.7358 C.2     1  UNL1        0.2479
     14 O          -1.9364    7.6507    0.9178 O.2     1  UNL1       -0.2701
     15 N          -2.1284    5.5045    1.4570 N.am    1  UNL1       -0.3059
     16 C          -1.5715    5.0859    0.1682 C.3     1  UNL1        0.0548
     17 C          -1.5186    3.5580    0.1076 C.3     1  UNL1       -0.0068
     18 H          -2.5326    3.1585    0.1267 H       1  UNL1        0.0866
     19 C          -0.8234    3.1228   -1.1844 C.3     1  UNL1       -0.0081
     20 C          -0.7548    1.5938   -1.2312 C.3     1  UNL1       -0.0431
     21 C          -0.0127    1.0858    0.0080 C.3     1  UNL1       -0.0124
     22 C          -0.7306    1.5801    1.2659 C.3     1  UNL1       -0.0334
     23 O          -2.5988    9.5360    2.4225 O.3     1  UNL1       -0.4823
     24 C          -2.7747   10.9050    2.7928 C.3     1  UNL1        0.1842
     25 C          -2.2980   11.8070    1.6525 C.3     1  UNL1        0.4236
     26 F          -3.0441   11.5359    0.5005 F       1  UNL1       -0.1671
     27 F          -2.4702   13.1472    2.0150 F       1  UNL1       -0.1671
     28 F          -0.9440   11.5626    1.3994 F       1  UNL1       -0.1671
     29 H          -4.2973    8.3427    6.4251 H       1  UNL1        0.0655
     30 H          -3.6240   10.0361    4.7775 H       1  UNL1        0.0655
     31 H          -3.1043    5.2289    3.7565 H       1  UNL1        0.0663
     32 H          -3.9066    6.8585    7.8413 H       1  UNL1        0.0788
     33 H          -5.5438    6.8288    7.1434 H       1  UNL1        0.0788
     34 H          -2.3948    4.8382    2.1096 H       1  UNL1        0.1492
     35 H          -0.5646    5.4889    0.0594 H       1  UNL1        0.0518
     36 H          -2.2017    5.4600   -0.6386 H       1  UNL1        0.0518
     37 H           0.1861    3.5332   -1.2105 H       1  UNL1        0.0320
     38 H          -1.3878    3.4882   -2.0423 H       1  UNL1        0.0320
     39 H          -0.2219    1.2804   -2.1289 H       1  UNL1        0.0269
     40 H          -1.7645    1.1833   -1.2450 H       1  UNL1        0.0269
     41 H           0.0021   -0.0041    0.0020 H       1  UNL1        0.0317
     42 H           1.0097    1.4637    0.0003 H       1  UNL1        0.0317
     43 H          -1.7483    1.1900    1.2802 H       1  UNL1        0.0814
     44 H          -0.1959    1.2321    2.1497 H       1  UNL1        0.0814
     45 H          -3.8296   11.0954    2.9900 H       1  UNL1        0.0788
     46 H          -2.1934   11.1161    3.6903 H       1  UNL1        0.0788
     47 N          -0.7649    3.0552    1.2721 N.4     1  UNL1        0.2303
     48 H          -1.2188    3.3793    2.1342 H       1  UNL1        0.2017
     49 H           0.1956    3.4160    1.2346 H       1  UNL1        0.2017
@<TRIPOS>UNITY_ATOM_ATTR
47 1
charge 1
@<TRIPOS>BOND
     1     1     6   ar
     2     1     2   ar
     3     1    29    1
     4     2     3   ar
     5     2    30    1
     6     3     4   ar
     7     3    23    1
     8     4     5   ar
     9     4    13    1
    10     5     6   ar
    11     5    31    1
    12     6     7    1
    13     7     8    1
    14     8     9    1
    15     8    32    1
    16     8    33    1
    17     9    10    1
    18     9    11    1
    19     9    12    1
    20    13    14    2
    21    13    15   am
    22    15    16    1
    23    15    34    1
    24    16    17    1
    25    16    35    1
    26    16    36    1
    27    17    18    1
    28    17    19    1
    29    17    47    1
    30    19    20    1
    31    19    37    1
    32    19    38    1
    33    20    21    1
    34    20    39    1
    35    20    40    1
    36    21    22    1
    37    21    41    1
    38    21    42    1
    39    22    43    1
    40    22    44    1
    41    22    47    1
    42    23    24    1
    43    24    25    1
    44    24    45    1
    45    24    46    1
    46    25    26    1
    47    25    27    1
    48    25    28    1
    49    47    48    1
    50    47    49    1
