@<TRIPOS>MOLECULE
ZINC03830437
 46 48 0 0 0
SMALL
GASTEIGER

@<TRIPOS>ATOM
      1 C          -0.8932   -5.2199   -1.1748 C.3     1  UNL1        0.0332
      2 C          -1.2598   -3.7584   -1.1488 C.2     1  UNL1        0.3043
      3 O          -2.4109   -3.4216   -1.2954 O.2     1  UNL1       -0.2512
      4 O          -0.3076   -2.8308   -0.9625 O.3     1  UNL1       -0.4603
      5 C          -0.7151   -1.4402   -1.0544 C.3     1  UNL1        0.1164
      6 C           0.4979   -0.5529   -0.9433 C.2     1  UNL1        0.0004
      7 CA          0.2629    0.7511   -0.9255 C.2     1  UNL1        0.0631
      8 N           1.3164    1.6608   -0.7739 N.am    1  UNL1       -0.2533
      9 C           2.7696    1.4005   -0.9747 C.3     1  UNL1        0.1041
     10 H           3.1031    1.4386   -2.0118 H       1  UNL1        0.0644
     11 CA          3.0995    2.6381   -0.1595 C.3     1  UNL1        0.1286
     12 HA          3.7486    3.3520   -0.6665 H       1  UNL1        0.0622
     13 C           1.6008    2.8874   -0.3542 C.2     1  UNL1        0.2438
     14 O           0.9114    3.8716   -0.1896 O.2     1  UNL1       -0.2731
     15 N           3.5012    2.3638    1.2224 N.am    1  UNL1       -0.2963
     16 C           4.2777    3.2433    1.8857 C.2     1  UNL1        0.2684
     17 O           4.6446    4.2638    1.3375 O.2     1  UNL1       -0.2683
     18 C           4.6841    2.9658    3.2835 C.2     1  UNL1        0.1897
     19 N           4.2907    1.8717    3.8713 N.2     1  UNL1       -0.0779
     20 O           4.7909    1.5374    5.1531 O.2     1  UNL1       -0.3964
     21 C           4.2748    0.3121    5.6770 C.3     1  UNL1        0.1072
     22 C           5.5360    3.9308    4.0112 C.ar    1  UNL1        0.1067
     23 C           5.7316    3.8029    5.3605 C.ar    1  UNL1        0.0067
     24 S           6.8060    5.1967    5.6755 S.2     1  UNL1       -0.0604
     25 C           6.8868    5.8045    3.9968 C.ar    1  UNL1        0.1562
     26 N           6.1274    4.9323    3.3614 N.ar    1  UNL1       -0.2233
     27 N           7.5704    6.8990    3.4945 N.pl3   1  UNL1       -0.3375
     28 S           3.1095   -0.1928   -0.1519 S.3     1  UNL1       -0.1310
     29 C           1.8158   -1.2535   -0.8674 C.3     1  UNL1        0.0219
     30 C          -1.1172    1.2478   -1.0724 C.2     1  UNL1        0.0860
     31 O          -1.3380    2.4425   -1.0550 O.co2   1  UNL1       -0.5433
     32 H           0.1649   -5.3333   -0.9388 H       1  UNL1        0.0342
     33 H          -1.4896   -5.7573   -0.4375 H       1  UNL1        0.0342
     34 H          -1.0897   -5.6261   -2.1670 H       1  UNL1        0.0342
     35 H          -1.4085   -1.2105   -0.2454 H       1  UNL1        0.0746
     36 H          -1.2049   -1.2676   -2.0127 H       1  UNL1        0.0746
     37 H           3.2083    1.5491    1.6600 H       1  UNL1        0.1499
     38 H           4.7062    0.1273    6.6608 H       1  UNL1        0.0687
     39 H           3.1904    0.3819    5.7631 H       1  UNL1        0.0687
     40 H           4.5341   -0.5074    5.0068 H       1  UNL1        0.0687
     41 H           5.3435    3.0638    6.0457 H       1  UNL1        0.0716
     42 H           8.0992    7.4547    4.0881 H       1  UNL1        0.1442
     43 H           7.5205    7.1098    2.5490 H       1  UNL1        0.1442
     44 H           1.7079   -2.1460   -0.2512 H       1  UNL1        0.0424
     45 H           2.1170   -1.5519   -1.8715 H       1  UNL1        0.0424
     46 OXT        -2.1341    0.3767   -1.2261 O.co2   1  UNL1       -0.5433
@<TRIPOS>UNITY_ATOM_ATTR
46 1
charge -1
@<TRIPOS>BOND
     1     1     2    1
     2     1    32    1
     3     1    33    1
     4     1    34    1
     5     2     3    2
     6     2     4    1
     7     4     5    1
     8     5     6    1
     9     5    35    1
    10     5    36    1
    11     6    29    1
    12     6     7    2
    13     7     8    1
    14     7    30    1
    15     8    13   am
    16     8     9    1
    17     9    10    1
    18     9    11    1
    19     9    28    1
    20    11    12    1
    21    11    13    1
    22    11    15    1
    23    13    14    2
    24    15    16   am
    25    15    37    1
    26    16    17    2
    27    16    18    1
    28    18    19    2
    29    18    22    1
    30    19    20    1
    31    20    21    1
    32    21    38    1
    33    21    39    1
    34    21    40    1
    35    22    26   ar
    36    22    23   ar
    37    23    24   ar
    38    23    41    1
    39    24    25   ar
    40    25    26   ar
    41    25    27    1
    42    27    42    1
    43    27    43    1
    44    28    29    1
    45    29    44    1
    46    29    45    1
    47    30    31   ar
    48    30    46   ar
