@<TRIPOS>MOLECULE
ZINC03831184
 46 49 0 0 0
SMALL
GASTEIGER

@<TRIPOS>ATOM
      1 C           0.0575    5.6483    0.2310 C.3     1  UNL1       -0.0569
      2 C           0.4281    4.2849    0.8604 C.3     1  UNL1       -0.0030
      3 C          -0.8743    3.5645    1.1100 C.3     1  UNL1       -0.0447
      4 C          -0.7154    2.0545    1.2649 C.3     1  UNL1       -0.0488
      5 C          -0.0187    1.5258    0.0104 C.3     1  UNL1       -0.0314
      6 H          -0.5464    1.8844   -0.8761 H       1  UNL1        0.0309
      7 C           1.4081    2.0740   -0.0002 C.3     1  UNL1       -0.0340
      8 H           1.9150    1.6721   -0.8913 H       1  UNL1        0.0307
      9 C           1.3937    3.5953   -0.1033 C.3     1  UNL1       -0.0301
     10 H           1.1734    3.8979   -1.1481 H       1  UNL1        0.0310
     11 C           2.7912    4.1200    0.3210 C.3     1  UNL1       -0.0470
     12 C           2.6886    4.3634    1.8387 C.3     1  UNL1       -0.0261
     13 C           1.1990    4.5920    2.1473 C.3     1  UNL1        0.0609
     14 H           1.0409    5.6428    2.4227 H       1  UNL1        0.0599
     15 O           0.7687    3.7574    3.2208 O.3     1  UNL1       -0.3912
     16 C           2.1732    1.6085    1.2349 C.3     1  UNL1       -0.0460
     17 C           2.2622    0.0782    1.2481 C.3     1  UNL1       -0.0308
     18 C           0.8595   -0.4893    1.1316 C.2     1  UNL1       -0.0629
     19 C           0.4619   -1.3798    2.0367 C.2     1  UNL1       -0.0197
     20 C          -0.8933   -1.9373    1.9425 C.2     1  UNL1        0.1561
     21 O          -1.4870   -2.3494    2.9145 O.2     1  UNL1       -0.2927
     22 C          -1.5014   -1.9645    0.5545 C.3     1  UNL1        0.0104
     23 C          -1.4088   -0.5523   -0.0220 C.3     1  UNL1       -0.0392
     24 C           0.0021   -0.0041    0.0020 C.3     1  UNL1       -0.0160
     25 H           0.4903   -0.3150   -0.9289 H       1  UNL1        0.0349
     26 H          -0.4158    5.4849   -0.7372 H       1  UNL1        0.0236
     27 H          -0.6331    6.1764    0.8885 H       1  UNL1        0.0236
     28 H           0.9603    6.2445    0.0980 H       1  UNL1        0.0236
     29 H          -1.3380    3.9685    2.0129 H       1  UNL1        0.0271
     30 H          -1.5481    3.7608    0.2698 H       1  UNL1        0.0271
     31 H          -1.7031    1.6000    1.3649 H       1  UNL1        0.0268
     32 H          -0.1292    1.8235    2.1510 H       1  UNL1        0.0268
     33 H           3.5670    3.3858    0.0972 H       1  UNL1        0.0269
     34 H           3.0228    5.0550   -0.1981 H       1  UNL1        0.0269
     35 H           3.2643    5.2526    2.1115 H       1  UNL1        0.0290
     36 H           3.0653    3.5062    2.3946 H       1  UNL1        0.0290
     37 H           1.2313    3.9190    4.0545 H       1  UNL1        0.2098
     38 H           1.6777    1.9456    2.1420 H       1  UNL1        0.0271
     39 H           3.1911    2.0074    1.2134 H       1  UNL1        0.0271
     40 H           2.7168   -0.2526    2.1807 H       1  UNL1        0.0310
     41 H           2.8647   -0.2582    0.4048 H       1  UNL1        0.0310
     42 H           1.1230   -1.6910    2.8287 H       1  UNL1        0.0652
     43 H          -0.9967   -2.6108   -0.0179 H       1  UNL1        0.0345
     44 H          -2.5465   -2.2707    0.6146 H       1  UNL1        0.0345
     45 H          -2.0704    0.1017    0.5438 H       1  UNL1        0.0275
     46 H          -1.7589   -0.5771   -1.0588 H       1  UNL1        0.0275
@<TRIPOS>BOND
     1     1     2    1
     2     1    26    1
     3     1    27    1
     4     1    28    1
     5     2     9    1
     6     2    13    1
     7     2     3    1
     8     3     4    1
     9     3    29    1
    10     3    30    1
    11     4     5    1
    12     4    31    1
    13     4    32    1
    14     5     6    1
    15     5    24    1
    16     5     7    1
    17     7     8    1
    18     7     9    1
    19     7    16    1
    20     9    10    1
    21     9    11    1
    22    11    12    1
    23    11    33    1
    24    11    34    1
    25    12    13    1
    26    12    35    1
    27    12    36    1
    28    13    14    1
    29    13    15    1
    30    15    37    1
    31    16    17    1
    32    16    38    1
    33    16    39    1
    34    17    18    1
    35    17    40    1
    36    17    41    1
    37    18    24    1
    38    18    19    2
    39    19    20    1
    40    19    42    1
    41    20    21    2
    42    20    22    1
    43    22    23    1
    44    22    43    1
    45    22    44    1
    46    23    24    1
    47    23    45    1
    48    23    46    1
    49    24    25    1
