@<TRIPOS>MOLECULE
ZINC03830887
 26 26 0 0 0
SMALL
GASTEIGER

@<TRIPOS>ATOM
      1 C          -0.1368    1.5433    0.2416 C.3     1  UNL1        0.0730
      2 C          -0.8343    1.8942   -1.0742 C.3     1  UNL1        0.1132
      3 H          -1.8799    1.5905   -1.0236 H       1  UNL1        0.0647
      4 C          -0.1451    1.1619   -2.2285 C.3     1  UNL1        0.1147
      5 H          -0.2409    0.0855   -2.0860 H       1  UNL1        0.0648
      6 C          -0.8103    1.5648   -3.5482 C.3     1  UNL1        0.1304
      7 H          -1.8533    1.2481   -3.5423 H       1  UNL1        0.0679
      8 C          -0.7378    3.0873   -3.6998 C.3     1  UNL1        0.0565
      9 H          -1.2569    3.3888   -4.6096 H       1  UNL1        0.0927
     10 C          -1.4042    3.7452   -2.4887 C.3     1  UNL1        0.2030
     11 H          -2.4573    3.4659   -2.4567 H       1  UNL1        0.0968
     12 O          -0.7576    3.3043   -1.2930 O.3     1  UNL1       -0.3383
     13 O          -1.2909    5.1657   -2.5956 O.3     1  UNL1       -0.3627
     14 O          -0.1262    0.9427   -4.6378 O.3     1  UNL1       -0.3834
     15 O           1.2382    1.5190   -2.2625 O.3     1  UNL1       -0.3864
     16 O          -0.8490    2.1340    1.3305 O.3     1  UNL1       -0.3924
     17 H          -0.1172    0.4605    0.3650 H       1  UNL1        0.0584
     18 H           0.8838    1.9256    0.2250 H       1  UNL1        0.0584
     19 H          -1.6916    5.6487   -1.8599 H       1  UNL1        0.2127
     20 H           1.1203    3.1123   -4.5858 H       1  UNL1        0.2000
     21 H           0.7458    4.5128   -3.7709 H       1  UNL1        0.2000
     22 H          -0.4909    1.1600   -5.5066 H       1  UNL1        0.2102
     23 H           1.7217    1.2969   -1.4550 H       1  UNL1        0.2100
     24 H          -0.4622    1.9526    2.1981 H       1  UNL1        0.2095
     25 N           0.6767    3.4967   -3.7533 N.4     1  UNL1        0.2263
     26 H           1.1623    3.1422   -2.9210 H       1  UNL1        0.2000
@<TRIPOS>UNITY_ATOM_ATTR
25 1
charge 1
@<TRIPOS>BOND
     1     1     2    1
     2     1    16    1
     3     1    17    1
     4     1    18    1
     5     2     3    1
     6     2    12    1
     7     2     4    1
     8     4     5    1
     9     4     6    1
    10     4    15    1
    11     6     7    1
    12     6     8    1
    13     6    14    1
    14     8     9    1
    15     8    10    1
    16     8    25    1
    17    10    11    1
    18    10    12    1
    19    10    13    1
    20    13    19    1
    21    14    22    1
    22    15    23    1
    23    16    24    1
    24    20    25    1
    25    21    25    1
    26    25    26    1
