@<TRIPOS>MOLECULE
ZINC11592733
 62 65 0 0 0
SMALL
GASTEIGER

@<TRIPOS>ATOM
      1 C           8.4188    3.5778    5.1584 C.3     1  UNL1       -0.0493
      2 C           7.0496    4.1410    5.5442 C.3     1  UNL1        0.0123
      3 N           6.0111    3.4961    4.7368 N.am    1  UNL1       -0.2925
      4 C           5.6178    4.0784    3.4534 C.3     1  UNL1        0.0314
      5 C           5.3345    2.9762    2.4314 C.3     1  UNL1        0.0401
      6 N           4.3907    2.0027    2.9816 N.am    1  UNL1       -0.2167
      7 C           4.4621    1.6495    4.2806 C.2     1  UNL1        0.3091
      8 O           3.7587    0.7624    4.7161 O.2     1  UNL1       -0.2645
      9 C           5.4207    2.3673    5.1779 C.2     1  UNL1        0.3022
     10 O           5.6628    1.9395    6.2873 O.2     1  UNL1       -0.2649
     11 C           3.4513    1.4537    2.1863 C.2     1  UNL1        0.3098
     12 O           2.6096    0.7160    2.6600 O.2     1  UNL1       -0.2522
     13 N           3.4453    1.7227    0.8656 N.am    1  UNL1       -0.2836
     14 CA          2.4934    1.0426   -0.0161 C.3     1  UNL1        0.1261
     15 HA          2.3372    0.0227    0.3355 H       1  UNL1        0.0646
     16 C           1.1813    1.7838   -0.0060 C.ar    1  UNL1       -0.0184
     17 C          -0.0093    1.0815    0.0017 C.ar    1  UNL1       -0.0563
     18 C          -1.2128    1.7614    0.0057 C.ar    1  UNL1       -0.0614
     19 C          -1.2258    3.1437    0.0116 C.ar    1  UNL1       -0.0617
     20 C          -0.0352    3.8460    0.0047 C.ar    1  UNL1       -0.0614
     21 C           1.1684    3.1661   -0.0041 C.ar    1  UNL1       -0.0563
     22 C           3.0421    1.0117   -1.4193 C.2     1  UNL1        0.2386
     23 O           4.1220    1.5089   -1.6592 O.2     1  UNL1       -0.2734
     24 N           2.3328    0.4316   -2.4077 N.am    1  UNL1       -0.2999
     25 CA          2.8663    0.4016   -3.7718 C.3     1  UNL1        0.1277
     26 HA          3.9550    0.4472   -3.7981 H       1  UNL1        0.0622
     27 C           2.2863   -0.7221   -4.6234 C.3     1  UNL1        0.1003
     28 H           1.4797   -1.3051   -4.1787 H       1  UNL1        0.0640
     29 N           1.9104    0.3697   -5.5462 N.am    1  UNL1       -0.2761
     30 C           2.2033    1.3931   -4.6956 C.2     1  UNL1        0.2401
     31 O           2.0123    2.5908   -4.6855 O.2     1  UNL1       -0.2734
     32 CA          2.6062    0.3831   -6.8376 C.3     1  UNL1        0.0807
     33 HA          3.4737    1.0393   -6.7673 H       1  UNL1        0.0576
     34 C           3.0781   -1.0382   -7.2517 C.3     1  UNL1        0.0366
     35 S           3.5363   -1.6746   -5.5770 S.3     1  UNL1       -0.1275
     36 C           4.2912   -0.9793   -8.1823 C.3     1  UNL1       -0.0486
     37 C           1.9401   -1.8521   -7.8708 C.3     1  UNL1       -0.0486
     38 C           1.6731    0.9181   -7.8931 C.2     1  UNL1        0.0635
     39 O           0.4816    0.9358   -7.6934 O.co2   1  UNL1       -0.5478
     40 H           8.4335    2.5029    5.3388 H       1  UNL1        0.0245
     41 H           8.6070    3.7715    4.1024 H       1  UNL1        0.0245
     42 H           9.1914    4.0576    5.7591 H       1  UNL1        0.0245
     43 H           7.0349    5.2159    5.3637 H       1  UNL1        0.0462
     44 H           6.8614    3.9473    6.6002 H       1  UNL1        0.0462
     45 H           4.7218    4.6833    3.5925 H       1  UNL1        0.0480
     46 H           6.4247    4.7108    3.0830 H       1  UNL1        0.0480
     47 H           6.2653    2.4700    2.1759 H       1  UNL1        0.0485
     48 H           4.9089    3.4209    1.5318 H       1  UNL1        0.0485
     49 H           4.0712    2.3667    0.4990 H       1  UNL1        0.1513
     50 H           0.0008    0.0015    0.0003 H       1  UNL1        0.0621
     51 H          -2.1431    1.2127    0.0072 H       1  UNL1        0.0618
     52 H          -2.1661    3.6749    0.0181 H       1  UNL1        0.0618
     53 H          -0.0453    4.9260    0.0059 H       1  UNL1        0.0618
     54 H           2.0986    3.7148   -0.0098 H       1  UNL1        0.0621
     55 H           1.4691    0.0340   -2.2158 H       1  UNL1        0.1496
     56 H           4.6947   -1.9828   -8.3172 H       1  UNL1        0.0244
     57 H           3.9884   -0.5764   -9.1488 H       1  UNL1        0.0244
     58 H           5.0546   -0.3366   -7.7438 H       1  UNL1        0.0244
     59 H           1.0695   -1.8161   -7.2158 H       1  UNL1        0.0244
     60 H           1.6808   -1.4331   -8.8431 H       1  UNL1        0.0244
     61 H           2.2591   -2.8870   -7.9945 H       1  UNL1        0.0244
     62 OXT         2.1658    1.3751   -9.0551 O.co2   1  UNL1       -0.5478
@<TRIPOS>UNITY_ATOM_ATTR
62 1
charge -1
@<TRIPOS>BOND
     1     1     2    1
     2     1    40    1
     3     1    41    1
     4     1    42    1
     5     2     3    1
     6     2    43    1
     7     2    44    1
     8     3     9   am
     9     3     4    1
    10     4     5    1
    11     4    45    1
    12     4    46    1
    13     5     6    1
    14     5    47    1
    15     5    48    1
    16     6     7   am
    17     6    11   am
    18     7     8    2
    19     7     9    1
    20     9    10    2
    21    11    12    2
    22    11    13   am
    23    13    14    1
    24    13    49    1
    25    14    15    1
    26    14    16    1
    27    14    22    1
    28    16    21   ar
    29    16    17   ar
    30    17    18   ar
    31    17    50    1
    32    18    19   ar
    33    18    51    1
    34    19    20   ar
    35    19    52    1
    36    20    21   ar
    37    20    53    1
    38    21    54    1
    39    22    23    2
    40    22    24   am
    41    24    25    1
    42    24    55    1
    43    25    26    1
    44    25    30    1
    45    25    27    1
    46    27    28    1
    47    27    35    1
    48    27    29    1
    49    29    30   am
    50    29    32    1
    51    30    31    2
    52    32    33    1
    53    32    34    1
    54    32    38    1
    55    34    35    1
    56    34    36    1
    57    34    37    1
    58    36    56    1
    59    36    57    1
    60    36    58    1
    61    37    59    1
    62    37    60    1
    63    37    61    1
    64    38    39   ar
    65    38    62   ar
