@<TRIPOS>MOLECULE
ZINC08101090
 124 126 0 0 0
SMALL
GASTEIGER

@<TRIPOS>ATOM
      1 C          -5.2404   -2.7569    3.9232 C.3     1  UNL1       -0.0618
      2 C          -5.8608   -3.8889    3.1019 C.3     1  UNL1       -0.0157
      3 C          -6.1369   -3.3955    1.6802 C.3     1  UNL1        0.1335
      4 H          -5.2181   -2.9985    1.2485 H       1  UNL1        0.0764
      5 C          -6.6407   -4.5599    0.8250 C.3     1  UNL1        0.1262
      6 C          -5.9187   -4.5517   -0.5240 C.3     1  UNL1        0.0963
      7 H          -5.1750   -5.3483   -0.5428 H       1  UNL1        0.0630
      8 C          -6.9336   -4.7747   -1.6470 C.3     1  UNL1        0.0437
      9 H          -7.8542   -4.5818   -1.3074 H       1  UNL1        0.0401
     10 C          -6.6194   -3.8540   -2.7980 C.2     1  UNL1        0.1416
     11 O          -5.4882   -3.7692   -3.2121 O.2     1  UNL1       -0.2967
     12 C          -7.7171   -3.0395   -3.4325 C.3     1  UNL1        0.0177
     13 H          -8.5187   -3.0375   -2.8347 H       1  UNL1        0.0376
     14 C          -7.2319   -1.6034   -3.6398 C.3     1  UNL1       -0.0125
     15 C          -8.2849   -0.6278   -3.1104 C.3     1  UNL1        0.0903
     16 C          -7.6144    0.3990   -2.1954 C.3     1  UNL1        0.0951
     17 H          -7.5757    1.3646   -2.6997 H       1  UNL1        0.0629
     18 C          -8.4198    0.5325   -0.9005 C.3     1  UNL1        0.0124
     19 H          -8.8871   -0.4235   -0.6642 H       1  UNL1        0.0349
     20 C          -7.4868    0.9402    0.2414 C.3     1  UNL1        0.0793
     21 H          -7.6840    1.9755    0.5197 H       1  UNL1        0.0608
     22 C          -7.7310    0.0323    1.4484 C.3     1  UNL1        0.0801
     23 H          -8.7438   -0.3680    1.4031 H       1  UNL1        0.0436
     24 C          -6.7406   -1.1035    1.4308 C.2     1  UNL1        0.3128
     25 O          -5.5827   -0.8912    1.1590 O.2     1  UNL1       -0.2504
     26 O          -7.1448   -2.3510    1.7175 O.3     1  UNL1       -0.4581
     27 C          -7.5586    0.8393    2.7369 C.3     1  UNL1       -0.0499
     28 O          -6.1287    0.8119   -0.1842 O.3     1  UNL1       -0.3468
     29 C          -5.1951    1.5268    0.6278 C.3     1  UNL1        0.1627
     30 H          -5.7308    2.0638    1.4106 H       1  UNL1        0.0911
     31 C          -4.4234    2.5247   -0.2396 C.3     1  UNL1        0.0298
     32 C          -3.3839    3.2441    0.6254 C.3     1  UNL1        0.0991
     33 C          -2.4647    2.2029    1.2714 C.3     1  UNL1        0.1098
     34 H          -1.7557    2.7026    1.9316 H       1  UNL1        0.0648
     35 C          -3.3108    1.2173    2.0815 C.3     1  UNL1        0.0874
     36 H          -3.8218    1.7503    2.8833 H       1  UNL1        0.0621
     37 O          -4.2782    0.6064    1.2230 O.3     1  UNL1       -0.3456
     38 C          -2.4049    0.1399    2.6811 C.3     1  UNL1       -0.0361
     39 O          -1.7530    1.4969    0.2531 O.3     1  UNL1       -0.3864
     40 C          -2.5546    4.1868   -0.2489 C.3     1  UNL1       -0.0331
     41 O          -4.0471    3.9944    1.6448 O.3     1  UNL1       -0.3740
     42 C          -5.0468    4.8883    1.1513 C.3     1  UNL1        0.0373
     43 C          -9.5024    1.5987   -1.0800 C.3     1  UNL1       -0.0576
     44 O          -6.2869   -0.0316   -1.8883 O.3     1  UNL1       -0.3412
     45 C          -5.3277    0.2735   -2.9026 C.3     1  UNL1        0.2023
     46 H          -5.7990    0.1998   -3.8827 H       1  UNL1        0.0951
     47 C          -4.1642   -0.7181   -2.8199 C.3     1  UNL1        0.1954
     48 H          -4.5308   -1.7266   -3.0111 H       1  UNL1        0.0844
     49 C          -3.1125   -0.3480   -3.8702 C.3     1  UNL1        0.0238
     50 H          -3.5443   -0.4400   -4.8668 H       1  UNL1        0.0890
     51 C          -2.6619    1.0975   -3.6384 C.3     1  UNL1        0.0201
     52 C          -3.8834    2.0190   -3.6895 C.3     1  UNL1        0.0642
     53 H          -4.3358    1.9683   -4.6800 H       1  UNL1        0.0596
     54 O          -4.8354    1.6010   -2.7091 O.3     1  UNL1       -0.3445
     55 C          -3.4500    3.4573   -3.3995 C.3     1  UNL1       -0.0384
     56 C          -2.3357   -2.6325   -4.0708 C.3     1  UNL1       -0.0430
     57 C          -0.8463   -0.7970   -4.5952 C.3     1  UNL1       -0.0430
     58 O          -3.5698   -0.6594   -1.4964 O.3     1  UNL1       -0.4506
     59 C          -4.2290   -1.2783   -0.5043 C.2     1  UNL1        0.3046
     60 O          -5.3954   -1.5629   -0.6395 O.2     1  UNL1       -0.2512
     61 C          -3.5142   -1.6182    0.7781 C.3     1  UNL1        0.0332
     62 C          -8.9490    0.0929   -4.2853 C.3     1  UNL1       -0.0336
     63 O          -9.2742   -1.3486   -2.3731 O.3     1  UNL1       -0.3863
     64 C          -8.0904   -3.6518   -4.7841 C.3     1  UNL1       -0.0556
     65 C          -6.8587   -6.2275   -2.1209 C.3     1  UNL1       -0.0532
     66 O          -5.2715   -3.2913   -0.7102 O.3     1  UNL1       -0.3881
     67 C          -6.3605   -5.8803    1.5453 C.3     1  UNL1       -0.0301
     68 O          -8.0471   -4.4218    0.6133 O.3     1  UNL1       -0.3826
     69 H          -5.0437   -3.1085    4.9360 H       1  UNL1        0.0231
     70 H          -4.3053   -2.4422    3.4598 H       1  UNL1        0.0231
     71 H          -5.9301   -1.9136    3.9588 H       1  UNL1        0.0231
     72 H          -6.7959   -4.2037    3.5652 H       1  UNL1        0.0299
     73 H          -5.1711   -4.7322    3.0663 H       1  UNL1        0.0299
     74 H          -6.2958   -1.4549   -3.1016 H       1  UNL1        0.0300
     75 H          -7.0721   -1.4237   -4.7030 H       1  UNL1        0.0300
     76 H          -8.3312    1.6063    2.7912 H       1  UNL1        0.0238
     77 H          -7.6456    0.1745    3.5963 H       1  UNL1        0.0238
     78 H          -6.5764    1.3119    2.7409 H       1  UNL1        0.0238
     79 H          -5.1159    3.2543   -0.6592 H       1  UNL1        0.0343
     80 H          -3.9202    1.9935   -1.0475 H       1  UNL1        0.0343
     81 H          -1.6674    0.6072    3.3336 H       1  UNL1        0.0255
     82 H          -3.0075   -0.5618    3.2578 H       1  UNL1        0.0255
     83 H          -1.8945   -0.3933    1.8790 H       1  UNL1        0.0255
     84 H          -1.1521    0.8189    0.5913 H       1  UNL1        0.2100
     85 H          -1.9836    3.6039   -0.9716 H       1  UNL1        0.0258
     86 H          -3.2188    4.8708   -0.7773 H       1  UNL1        0.0258
     87 H          -1.8705    4.7574    0.3793 H       1  UNL1        0.0258
     88 H          -5.5649    5.3530    1.9902 H       1  UNL1        0.0524
     89 H          -4.5755    5.6602    0.5428 H       1  UNL1        0.0524
     90 H          -5.7625    4.3337    0.5444 H       1  UNL1        0.0524
     91 H          -9.0352    2.5547   -1.3163 H       1  UNL1        0.0234
     92 H         -10.1671    1.3082   -1.8936 H       1  UNL1        0.0234
     93 H         -10.0761    1.6927   -0.1580 H       1  UNL1        0.0234
     94 H          -2.1854    1.1783   -2.6614 H       1  UNL1        0.0346
     95 H          -1.9542    1.3875   -4.4150 H       1  UNL1        0.0346
     96 H          -2.9947    3.8866   -4.2921 H       1  UNL1        0.0255
     97 H          -4.3204    4.0488   -3.1154 H       1  UNL1        0.0255
     98 H          -2.7261    3.4614   -2.5846 H       1  UNL1        0.0255
     99 H          -2.7099   -2.6789   -5.0935 H       1  UNL1        0.0778
    100 H          -1.4634   -3.2788   -3.9735 H       1  UNL1        0.0778
    101 H          -3.1135   -2.9662   -3.3839 H       1  UNL1        0.0778
    102 H          -0.5973    0.2346   -4.3466 H       1  UNL1        0.0778
    103 H           0.0226   -1.4321   -4.4230 H       1  UNL1        0.0778
    104 H          -1.1387   -0.8577   -5.6434 H       1  UNL1        0.0778
    105 H          -2.4868   -1.2576    0.7279 H       1  UNL1        0.0342
    106 H          -4.0253   -1.1436    1.6157 H       1  UNL1        0.0342
    107 H          -3.5135   -2.6991    0.9182 H       1  UNL1        0.0342
    108 H          -9.4266   -0.6386   -4.9372 H       1  UNL1        0.0258
    109 H          -9.6991    0.7880   -3.9081 H       1  UNL1        0.0258
    110 H          -8.1944    0.6428   -4.8477 H       1  UNL1        0.0258
    111 H         -10.0162   -0.8050   -2.0749 H       1  UNL1        0.2103
    112 H          -8.4361   -4.6749   -4.6364 H       1  UNL1        0.0236
    113 H          -8.8843   -3.0627   -5.2430 H       1  UNL1        0.0236
    114 H          -7.2166   -3.6540   -5.4357 H       1  UNL1        0.0236
    115 H          -7.0859   -6.8934   -1.2884 H       1  UNL1        0.0237
    116 H          -7.5817   -6.3864   -2.9210 H       1  UNL1        0.0237
    117 H          -5.8553   -6.4377   -2.4910 H       1  UNL1        0.0237
    118 H          -4.8367   -3.1955   -1.5686 H       1  UNL1        0.2099
    119 H          -6.8749   -5.8861    2.5063 H       1  UNL1        0.0259
    120 H          -6.7194   -6.7098    0.9361 H       1  UNL1        0.0259
    121 H          -5.2877   -5.9856    1.7068 H       1  UNL1        0.0259
    122 H          -8.5690   -4.4190    1.4274 H       1  UNL1        0.2104
    123 N          -1.9501   -1.2489   -3.7222 N.4     1  UNL1        0.2359
    124 H          -1.6333   -1.2270   -2.7457 H       1  UNL1        0.2032
@<TRIPOS>UNITY_ATOM_ATTR
123 1
charge 1
@<TRIPOS>BOND
     1     1     2    1
     2     1    69    1
     3     1    70    1
     4     1    71    1
     5     2     3    1
     6     2    72    1
     7     2    73    1
     8     3     4    1
     9     3    26    1
    10     3     5    1
    11     5     6    1
    12     5    67    1
    13     5    68    1
    14     6     7    1
    15     6     8    1
    16     6    66    1
    17     8     9    1
    18     8    10    1
    19     8    65    1
    20    10    11    2
    21    10    12    1
    22    12    13    1
    23    12    14    1
    24    12    64    1
    25    14    15    1
    26    14    74    1
    27    14    75    1
    28    15    16    1
    29    15    62    1
    30    15    63    1
    31    16    17    1
    32    16    18    1
    33    16    44    1
    34    18    19    1
    35    18    20    1
    36    18    43    1
    37    20    21    1
    38    20    22    1
    39    20    28    1
    40    22    23    1
    41    22    24    1
    42    22    27    1
    43    24    25    2
    44    24    26    1
    45    27    76    1
    46    27    77    1
    47    27    78    1
    48    28    29    1
    49    29    30    1
    50    29    37    1
    51    29    31    1
    52    31    32    1
    53    31    79    1
    54    31    80    1
    55    32    33    1
    56    32    40    1
    57    32    41    1
    58    33    34    1
    59    33    35    1
    60    33    39    1
    61    35    36    1
    62    35    37    1
    63    35    38    1
    64    38    81    1
    65    38    82    1
    66    38    83    1
    67    39    84    1
    68    40    85    1
    69    40    86    1
    70    40    87    1
    71    41    42    1
    72    42    88    1
    73    42    89    1
    74    42    90    1
    75    43    91    1
    76    43    92    1
    77    43    93    1
    78    44    45    1
    79    45    46    1
    80    45    54    1
    81    45    47    1
    82    47    48    1
    83    47    49    1
    84    47    58    1
    85    49    50    1
    86    49    51    1
    87    49   123    1
    88    51    52    1
    89    51    94    1
    90    51    95    1
    91    52    53    1
    92    52    54    1
    93    52    55    1
    94    55    96    1
    95    55    97    1
    96    55    98    1
    97    56    99    1
    98    56   100    1
    99    56   101    1
   100    56   123    1
   101    57   102    1
   102    57   103    1
   103    57   104    1
   104    57   123    1
   105    58    59    1
   106    59    60    2
   107    59    61    1
   108    61   105    1
   109    61   106    1
   110    61   107    1
   111    62   108    1
   112    62   109    1
   113    62   110    1
   114    63   111    1
   115    64   112    1
   116    64   113    1
   117    64   114    1
   118    65   115    1
   119    65   116    1
   120    65   117    1
   121    66   118    1
   122    67   119    1
   123    67   120    1
   124    67   121    1
   125    68   122    1
   126   123   124    1
