@<TRIPOS>MOLECULE
ZINC03831614
 49 50 0 0 0
SMALL
GASTEIGER

@<TRIPOS>ATOM
      1 C           4.2212   -2.2578    5.2194 C.3     1  UNL1       -0.0277
      2 C           3.7496   -1.7188    3.8647 C.3     1  UNL1        0.1006
      3 H           4.5314   -1.9024    3.1228 H       1  UNL1        0.0731
      4 C           3.5150   -0.2124    3.9781 C.3     1  UNL1       -0.0158
      5 C           4.3559    0.5066    2.9202 C.3     1  UNL1       -0.0474
      6 C           3.9533    1.9797    2.8504 C.3     1  UNL1       -0.0267
      7 C           3.4332    2.3090    1.4503 C.3     1  UNL1        0.0553
      8 H           3.8359    1.5951    0.7309 H       1  UNL1        0.0593
      9 C           1.9055    2.2373    1.4376 C.3     1  UNL1       -0.0269
     10 C           1.4141    2.0628   -0.0004 C.3     1  UNL1       -0.0507
     11 C          -0.0187    1.5260    0.0104 C.3     1  UNL1       -0.0527
     12 C           0.0021   -0.0041    0.0020 C.3     1  UNL1       -0.0490
     13 C          -0.5267   -0.5240    1.3384 C.3     1  UNL1       -0.0267
     14 C          -0.4517   -2.0282    1.3783 C.ar    1  UNL1       -0.0264
     15 C          -1.4758   -2.7623    0.8167 C.ar    1  UNL1       -0.0160
     16 C          -1.4494   -4.1504    0.8602 C.ar    1  UNL1        0.1206
     17 C          -0.3965   -4.8092    1.4788 C.ar    1  UNL1        0.0221
     18 C           0.6410   -4.0844    2.0360 C.ar    1  UNL1        0.1345
     19 C           0.6325   -2.6780    1.9665 C.ar    1  UNL1        0.1036
     20 C           1.7914   -1.9237    2.4674 C.2     1  UNL1        0.3433
     21 O           2.0813   -0.8678    1.9351 O.2     1  UNL1       -0.2448
     22 O           2.5411   -2.4042    3.4687 O.3     1  UNL1       -0.4581
     23 O           1.6636   -4.7343    2.6450 O.3     1  UNL1       -0.5058
     24 O          -2.4595   -4.8635    0.3015 O.3     1  UNL1       -0.5066
     25 O           3.8483    3.6282    1.0873 O.3     1  UNL1       -0.3918
     26 H           4.4200   -3.3263    5.1361 H       1  UNL1        0.0265
     27 H           5.1330   -1.7409    5.5187 H       1  UNL1        0.0265
     28 H           3.4462   -2.0896    5.9672 H       1  UNL1        0.0265
     29 H           2.4627    0.0160    3.8334 H       1  UNL1        0.0301
     30 H           3.8206    0.1283    4.9689 H       1  UNL1        0.0301
     31 H           5.4100    0.4346    3.1929 H       1  UNL1        0.0267
     32 H           4.2049    0.0340    1.9512 H       1  UNL1        0.0267
     33 H           3.1774    2.1830    3.5856 H       1  UNL1        0.0290
     34 H           4.8250    2.6001    3.0640 H       1  UNL1        0.0290
     35 H           1.5774    1.3903    2.0401 H       1  UNL1        0.0290
     36 H           1.4922    3.1559    1.8515 H       1  UNL1        0.0290
     37 H           2.0637    1.3645   -0.5280 H       1  UNL1        0.0266
     38 H           1.4322    3.0279   -0.5075 H       1  UNL1        0.0266
     39 H          -0.5516    1.8905   -0.8665 H       1  UNL1        0.0265
     40 H          -0.5255    1.8739    0.9121 H       1  UNL1        0.0265
     41 H          -0.6254   -0.3729   -0.8082 H       1  UNL1        0.0268
     42 H           1.0250   -0.3535   -0.1454 H       1  UNL1        0.0268
     43 H           0.0555   -0.1005    2.1556 H       1  UNL1        0.0313
     44 H          -1.5694   -0.2178    1.4538 H       1  UNL1        0.0313
     45 H          -2.2990   -2.2502    0.3416 H       1  UNL1        0.0657
     46 H          -0.3876   -5.8880    1.5236 H       1  UNL1        0.0691
     47 H           1.5252   -4.8875    3.5897 H       1  UNL1        0.2922
     48 H          -3.1904   -5.0504    0.9064 H       1  UNL1        0.2921
     49 H           3.5536    3.9056    0.2091 H       1  UNL1        0.2098
@<TRIPOS>BOND
     1     1     2    1
     2     1    26    1
     3     1    27    1
     4     1    28    1
     5     2     3    1
     6     2    22    1
     7     2     4    1
     8     4     5    1
     9     4    29    1
    10     4    30    1
    11     5     6    1
    12     5    31    1
    13     5    32    1
    14     6     7    1
    15     6    33    1
    16     6    34    1
    17     7     8    1
    18     7     9    1
    19     7    25    1
    20     9    10    1
    21     9    35    1
    22     9    36    1
    23    10    11    1
    24    10    37    1
    25    10    38    1
    26    11    12    1
    27    11    39    1
    28    11    40    1
    29    12    13    1
    30    12    41    1
    31    12    42    1
    32    13    14    1
    33    13    43    1
    34    13    44    1
    35    14    19   ar
    36    14    15   ar
    37    15    16   ar
    38    15    45    1
    39    16    17   ar
    40    16    24    1
    41    17    18   ar
    42    17    46    1
    43    18    19   ar
    44    18    23    1
    45    19    20    1
    46    20    21    2
    47    20    22    1
    48    23    47    1
    49    24    48    1
    50    25    49    1
