@<TRIPOS>MOLECULE
ZINC03831504
 31 33 0 0 0
SMALL
GASTEIGER

@<TRIPOS>ATOM
      1 C          -0.9219    3.1129   -1.1965 C.3     1  UNL1       -0.0360
      2 C          -0.7527    1.5927   -1.2315 C.3     1  UNL1        0.1300
      3 C          -0.0600    1.1251   -2.5413 C.3     1  UNL1        0.0936
      4 H          -0.3593    1.7840   -3.3564 H       1  UNL1        0.0585
      5 N          -0.4223   -0.2551   -2.8837 N.am    1  UNL1       -0.2685
      6 C          -1.7370   -0.7206   -2.3801 C.3     1  UNL1        0.1535
      7 H          -1.7443   -1.6596   -1.8265 H       1  UNL1        0.0750
      8 S          -2.3746    0.7331   -1.4538 S.O2    1  UNL1       -0.0024
      9 O          -2.8609    0.3091   -0.1877 O.2     1  UNL1       -0.1719
     10 O          -3.2060    1.5081   -2.3067 O.2     1  UNL1       -0.1719
     11 C          -2.2131   -0.7948   -3.8322 C.3     1  UNL1        0.0629
     12 C          -0.7811   -0.4834   -4.2141 C.2     1  UNL1        0.2210
     13 O          -0.1756   -0.4559   -5.2646 O.2     1  UNL1       -0.2754
     14 C           1.4341    1.2136   -2.3655 C.2     1  UNL1        0.0644
     15 O           2.0724    0.2199   -2.1106 O.co2   1  UNL1       -0.5478
     16 C          -0.0127    1.0858    0.0080 C.3     1  UNL1        0.0701
     17 N          -0.6984    1.5583    1.2133 N.ar    1  UNL1       -0.2496
     18 C          -1.1514    0.7809    2.2240 C.ar    1  UNL1        0.0455
     19 C          -1.7138    1.6216    3.1234 C.ar    1  UNL1        0.0693
     20 N          -1.5792    2.8558    2.6255 N.ar    1  UNL1       -0.1380
     21 N          -0.9686    2.7847    1.4955 N.ar    1  UNL1       -0.0657
     22 H           0.0592    3.5872   -1.1733 H       1  UNL1        0.0252
     23 H          -1.4623    3.4389   -2.0852 H       1  UNL1        0.0252
     24 H          -1.4833    3.3955   -0.3059 H       1  UNL1        0.0252
     25 H          -2.5422   -1.7885   -4.1359 H       1  UNL1        0.0393
     26 H          -2.9214   -0.0115   -4.1024 H       1  UNL1        0.0393
     27 H           0.0021   -0.0041    0.0020 H       1  UNL1        0.0532
     28 H           1.0099    1.4631    0.0003 H       1  UNL1        0.0532
     29 H          -1.0790   -0.2941    2.2980 H       1  UNL1        0.0842
     30 H          -2.1799    1.3494    4.0588 H       1  UNL1        0.0864
     31 O           2.0559    2.3965   -2.4921 O.co2   1  UNL1       -0.5478
@<TRIPOS>UNITY_ATOM_ATTR
31 1
charge -1
@<TRIPOS>BOND
     1     1     2    1
     2     1    22    1
     3     1    23    1
     4     1    24    1
     5     2     8    1
     6     2     3    1
     7     2    16    1
     8     3     4    1
     9     3     5    1
    10     3    14    1
    11     5    12   am
    12     5     6    1
    13     6     7    1
    14     6     8    1
    15     6    11    1
    16     8     9    2
    17     8    10    2
    18    11    12    1
    19    11    25    1
    20    11    26    1
    21    12    13    2
    22    14    15   ar
    23    14    31   ar
    24    16    17    1
    25    16    27    1
    26    16    28    1
    27    17    21   ar
    28    17    18   ar
    29    18    19   ar
    30    18    29    1
    31    19    20   ar
    32    19    30    1
    33    20    21   ar
