@<TRIPOS>MOLECULE
ZINC00538564
 43 44 0 0 0
SMALL
GASTEIGER

@<TRIPOS>ATOM
      1 C          -1.2112   -0.6289   -0.1351 C.3     1  UNL1       -0.0259
      2 C           0.1444    0.0735   -0.0352 C.3     1  UNL1        0.1583
      3 C           0.9770   -0.2458   -1.2784 C.3     1  UNL1        0.1078
      4 S           0.0390    0.2007   -2.7654 S.O2    1  UNL1        0.0001
      5 O          -1.0841   -0.6576   -2.9117 O.2     1  UNL1       -0.1693
      6 O          -0.1124    1.6114   -2.8435 O.2     1  UNL1       -0.1693
      7 C           1.0991   -0.2129   -4.1107 C.ar    1  UNL1        0.0885
      8 C           1.9819    0.7272   -4.6087 C.ar    1  UNL1       -0.0342
      9 C           2.8172    0.4024   -5.6607 C.ar    1  UNL1       -0.0247
     10 C           2.7623   -0.8618   -6.2227 C.ar    1  UNL1        0.1235
     11 C           1.8740   -1.8009   -5.7266 C.ar    1  UNL1       -0.0247
     12 C           1.0434   -1.4755   -4.6711 C.ar    1  UNL1       -0.0342
     13 F           3.5752   -1.1789   -7.2542 F       1  UNL1       -0.2055
     14 C           0.8709   -0.4094    1.1937 C.2     1  UNL1        0.2503
     15 O           1.6723   -1.3156    1.1074 O.2     1  UNL1       -0.2723
     16 N           0.6301    0.1658    2.3885 N.am    1  UNL1       -0.2831
     17 C           1.2185   -0.3516    3.5432 C.ar    1  UNL1        0.0341
     18 C           1.4359   -1.7210    3.6574 C.ar    1  UNL1       -0.0392
     19 C           2.0206   -2.2345    4.7931 C.ar    1  UNL1       -0.0421
     20 C           2.3862   -1.3793    5.8368 C.ar    1  UNL1        0.0635
     21 C           2.1614   -0.0049    5.7207 C.ar    1  UNL1        0.0739
     22 C           1.5809    0.5023    4.5795 C.ar    1  UNL1       -0.0276
     23 C           2.5543    0.9212    6.8428 C.3     1  UNL1        0.4187
     24 F           2.2324    2.2376    6.4954 F       1  UNL1       -0.1659
     25 F           1.8638    0.5637    8.0059 F       1  UNL1       -0.1659
     26 F           3.9313    0.8219    7.0689 F       1  UNL1       -0.1659
     27 C           2.9891   -1.9104    7.0221 C.1     1  UNL1        0.0997
     28 N           3.4674   -2.3318    7.9624 N.1     1  UNL1       -0.1909
     29 O          -0.0562    1.4855    0.0541 O.3     1  UNL1       -0.3780
     30 H          -1.7367   -0.2796   -1.0239 H       1  UNL1        0.0263
     31 H          -1.0582   -1.7059   -0.2032 H       1  UNL1        0.0263
     32 H          -1.8044   -0.4014    0.7506 H       1  UNL1        0.0263
     33 H           1.9057    0.3242   -1.2499 H       1  UNL1        0.0538
     34 H           1.2052   -1.3114   -1.2990 H       1  UNL1        0.0538
     35 H           2.0217    1.7145   -4.1728 H       1  UNL1        0.0637
     36 H           3.5097    1.1357   -6.0468 H       1  UNL1        0.0647
     37 H           1.8306   -2.7874   -6.1640 H       1  UNL1        0.0647
     38 H           0.3506   -2.2079   -4.2837 H       1  UNL1        0.0637
     39 H           0.0478    0.9395    2.4458 H       1  UNL1        0.1549
     40 H           1.1491   -2.3816    2.8526 H       1  UNL1        0.0636
     41 H           2.1928   -3.2972    4.8794 H       1  UNL1        0.0631
     42 H           1.4066    1.5643    4.4892 H       1  UNL1        0.0642
     43 H           0.7626    1.9957    0.1204 H       1  UNL1        0.2109
@<TRIPOS>BOND
     1     1     2    1
     2     1    30    1
     3     1    31    1
     4     1    32    1
     5     2     3    1
     6     2    14    1
     7     2    29    1
     8     3     4    1
     9     3    33    1
    10     3    34    1
    11     4     5    2
    12     4     6    2
    13     4     7    1
    14     7    12   ar
    15     7     8   ar
    16     8     9   ar
    17     8    35    1
    18     9    10   ar
    19     9    36    1
    20    10    11   ar
    21    10    13    1
    22    11    12   ar
    23    11    37    1
    24    12    38    1
    25    14    15    2
    26    14    16   am
    27    16    17    1
    28    16    39    1
    29    17    22   ar
    30    17    18   ar
    31    18    19   ar
    32    18    40    1
    33    19    20   ar
    34    19    41    1
    35    20    21   ar
    36    20    27    1
    37    21    22   ar
    38    21    23    1
    39    22    42    1
    40    23    24    1
    41    23    25    1
    42    23    26    1
    43    27    28    3
    44    29    43    1
