@<TRIPOS>MOLECULE
ZINC03830908
 50 53 0 0 0
SMALL
GASTEIGER

@<TRIPOS>ATOM
      1 C           0.7490    1.2664   -7.2157 C.3     1  UNL1       -0.0486
      2 C          -0.4231    1.2922   -6.2327 C.3     1  UNL1        0.0366
      3 CA         -0.5892    2.6917   -5.5786 C.3     1  UNL1        0.0807
      4 HA          0.3939    3.1470   -5.4588 H       1  UNL1        0.0576
      5 N          -1.2364    2.6052   -4.2661 N.am    1  UNL1       -0.2761
      6 C          -1.0578    1.3231   -3.5428 C.3     1  UNL1        0.1007
      7 H          -1.9509    0.8295   -3.1598 H       1  UNL1        0.0640
      8 S          -0.0517    0.3171   -4.7062 S.3     1  UNL1       -0.1275
      9 CA         -0.2334    2.1061   -2.5190 C.3     1  UNL1        0.1355
     10 HA          0.8371    1.9087   -2.5743 H       1  UNL1        0.0626
     11 C          -0.6633    3.3508   -3.2669 C.2     1  UNL1        0.2405
     12 O          -0.5470    4.5404   -3.0612 O.2     1  UNL1       -0.2734
     13 N          -0.7591    2.0271   -1.1539 N.am    1  UNL1       -0.2396
     14 C          -1.9973    2.4031   -0.7746 C.2     1  UNL1        0.2734
     15 O          -2.8556    2.8533   -1.5037 O.2     1  UNL1       -0.2688
     16 CA         -2.1354    2.1691    0.7139 C.3     1  UNL1        0.0831
     17 HA         -2.7067    1.2605    0.9039 H       1  UNL1        0.1004
     18 C          -0.0187    1.5258    0.0104 C.3     1  UNL1        0.0568
     19 C           0.0021   -0.0041    0.0020 C.3     1  UNL1       -0.0008
     20 C           1.4108    2.0710   -0.0003 C.3     1  UNL1       -0.0008
     21 C          -2.7982    3.3518    1.3718 C.ar    1  UNL1        0.0092
     22 C          -2.0656    4.4924    1.6425 C.ar    1  UNL1       -0.0528
     23 C          -2.6748    5.5791    2.2416 C.ar    1  UNL1       -0.0613
     24 C          -4.0141    5.5215    2.5791 C.ar    1  UNL1       -0.0617
     25 C          -4.7452    4.3788    2.3136 C.ar    1  UNL1       -0.0613
     26 C          -4.1373    3.2941    1.7097 C.ar    1  UNL1       -0.0528
     27 C          -1.4255    3.5604   -6.4825 C.2     1  UNL1        0.0635
     28 O          -2.6000    3.7211   -6.2487 O.co2   1  UNL1       -0.5478
     29 C          -1.7187    0.8236   -6.8981 C.3     1  UNL1       -0.0486
     30 H           0.9397    0.2393   -7.5268 H       1  UNL1        0.0244
     31 H           0.5042    1.8710   -8.0890 H       1  UNL1        0.0244
     32 H           1.6381    1.6704   -6.7317 H       1  UNL1        0.0244
     33 H           0.5400   -0.3650    0.8786 H       1  UNL1        0.0305
     34 H          -1.0203   -0.3814    0.0223 H       1  UNL1        0.0305
     35 H           0.5013   -0.3557   -0.9009 H       1  UNL1        0.0305
     36 H           1.9209    1.7354   -0.9032 H       1  UNL1        0.0305
     37 H           1.3843    3.1605    0.0184 H       1  UNL1        0.0305
     38 H           1.9457    1.7055    0.8763 H       1  UNL1        0.0305
     39 H          -1.0183    4.5359    1.3826 H       1  UNL1        0.0622
     40 H          -2.1034    6.4718    2.4494 H       1  UNL1        0.0618
     41 H          -4.4891    6.3692    3.0506 H       1  UNL1        0.0618
     42 H          -5.7915    4.3337    2.5776 H       1  UNL1        0.0618
     43 H          -4.7086    2.4013    1.5022 H       1  UNL1        0.0622
     44 H          -2.5446    0.9200   -6.1934 H       1  UNL1        0.0244
     45 H          -1.9179    1.4365   -7.7773 H       1  UNL1        0.0244
     46 H          -1.6166   -0.2194   -7.1979 H       1  UNL1        0.0244
     47 N          -0.7588    2.0105    1.1639 N.4     1  UNL1        0.2567
     48 H1         -0.7097    1.3306    1.9318 H       1  UNL1        0.2047
     49 H2         -0.3797    2.9111    1.4794 H       1  UNL1        0.2047
     50 OXT        -0.8656    4.1557   -7.5473 O.co2   1  UNL1       -0.5478
@<TRIPOS>UNITY_ATOM_ATTR
47 1
charge 1
50 1
charge -1
@<TRIPOS>BOND
     1     1     2    1
     2     1    30    1
     3     1    31    1
     4     1    32    1
     5     2     8    1
     6     2     3    1
     7     2    29    1
     8     3     4    1
     9     3     5    1
    10     3    27    1
    11     5    11   am
    12     5     6    1
    13     6     7    1
    14     6     8    1
    15     6     9    1
    16     9    10    1
    17     9    11    1
    18     9    13    1
    19    11    12    2
    20    13    18    1
    21    13    14   am
    22    14    15    2
    23    14    16    1
    24    16    17    1
    25    16    21    1
    26    16    47    1
    27    18    19    1
    28    18    20    1
    29    18    47    1
    30    19    33    1
    31    19    34    1
    32    19    35    1
    33    20    36    1
    34    20    37    1
    35    20    38    1
    36    21    26   ar
    37    21    22   ar
    38    22    23   ar
    39    22    39    1
    40    23    24   ar
    41    23    40    1
    42    24    25   ar
    43    24    41    1
    44    25    26   ar
    45    25    42    1
    46    26    43    1
    47    27    28   ar
    48    27    50   ar
    49    29    44    1
    50    29    45    1
    51    29    46    1
    52    47    48    1
    53    47    49    1
