@<TRIPOS>MOLECULE
ZINC01530863
 41 42 0 0 0
SMALL
GASTEIGER

@<TRIPOS>ATOM
      1 C           1.6076    2.0922   -1.4392 C.3     1  UNL1       -0.0467
      2 C           1.2475    1.7155   -0.0006 C.3     1  UNL1        0.0181
      3 H           1.1346    2.6215    0.5948 H       1  UNL1        0.0495
      4 C           2.3605    0.8501    0.5937 C.3     1  UNL1       -0.0300
      5 C           2.0613    0.5771    2.0692 C.3     1  UNL1       -0.0110
      6 C           3.1742   -0.2884    2.6636 C.3     1  UNL1       -0.0353
      7 N          -0.0111    0.9658    0.0074 N.pl3   1  UNL1       -0.3395
      8 C          -1.2277    1.6464    0.0168 C.ar    1  UNL1        0.0571
      9 C          -1.2499    3.0227    0.0244 C.ar    1  UNL1        0.0030
     10 C          -2.4609    3.7179    0.0330 C.ar    1  UNL1        0.1225
     11 C          -3.6600    3.0413    0.0345 C.ar    1  UNL1       -0.0107
     12 C          -3.6682    1.6378    0.0274 C.ar    1  UNL1        0.0056
     13 C          -2.4434    0.9266    0.0128 C.ar    1  UNL1        0.0919
     14 N          -2.4501   -0.4092    0.0117 N.ar    1  UNL1       -0.2531
     15 C          -3.5727   -1.0859    0.0121 C.ar    1  UNL1        0.0283
     16 C          -4.8120   -0.4492    0.0205 C.ar    1  UNL1       -0.0430
     17 C          -4.8769    0.9148    0.0283 C.ar    1  UNL1       -0.0510
     18 O          -2.4559    5.0767    0.0404 O.3     1  UNL1       -0.4950
     19 C          -3.7267    5.7302    0.0490 C.3     1  UNL1        0.0788
     20 H           0.8148    2.7088   -1.8626 H       1  UNL1        0.0247
     21 H           2.5441    2.6500   -1.4451 H       1  UNL1        0.0247
     22 H           1.7206    1.1862   -2.0346 H       1  UNL1        0.0247
     23 H           2.4140   -0.0948    0.0530 H       1  UNL1        0.0285
     24 H           3.3129    1.3729    0.5068 H       1  UNL1        0.0285
     25 H           2.0078    1.5220    2.6099 H       1  UNL1        0.0317
     26 H           1.1088    0.0543    2.1561 H       1  UNL1        0.0317
     27 H           3.2277   -1.2333    2.1228 H       1  UNL1        0.0813
     28 H           4.1267    0.2344    2.5766 H       1  UNL1        0.0813
     29 H           1.9794   -0.9768    4.1922 H       1  UNL1        0.1994
     30 H           3.6081   -1.1208    4.4958 H       1  UNL1        0.1994
     31 H           0.0021   -0.0041    0.0020 H       1  UNL1        0.1464
     32 H          -0.3197    3.5713    0.0233 H       1  UNL1        0.0673
     33 H          -4.5910    3.5886    0.0409 H       1  UNL1        0.0661
     34 H          -3.5361   -2.1652    0.0060 H       1  UNL1        0.0830
     35 H          -5.7202   -1.0337    0.0213 H       1  UNL1        0.0633
     36 H          -5.8287    1.4251    0.0353 H       1  UNL1        0.0625
     37 H          -3.5799    6.8102    0.0543 H       1  UNL1        0.0660
     38 H          -4.2883    5.4442   -0.8404 H       1  UNL1        0.0660
     39 H          -4.2812    5.4345    0.9396 H       1  UNL1        0.0660
     40 N           2.8874   -0.5268    4.0891 N.4     1  UNL1        0.2185
     41 H           2.8743    0.3718    4.5857 H       1  UNL1        0.1994
@<TRIPOS>UNITY_ATOM_ATTR
40 1
charge 1
@<TRIPOS>BOND
     1     1     2    1
     2     1    20    1
     3     1    21    1
     4     1    22    1
     5     2     3    1
     6     2     4    1
     7     2     7    1
     8     4     5    1
     9     4    23    1
    10     4    24    1
    11     5     6    1
    12     5    25    1
    13     5    26    1
    14     6    27    1
    15     6    28    1
    16     6    40    1
    17     7     8    1
    18     7    31    1
    19     8    13   ar
    20     8     9   ar
    21     9    10   ar
    22     9    32    1
    23    10    11   ar
    24    10    18    1
    25    11    12   ar
    26    11    33    1
    27    12    17   ar
    28    12    13   ar
    29    13    14   ar
    30    14    15   ar
    31    15    16   ar
    32    15    34    1
    33    16    17   ar
    34    16    35    1
    35    17    36    1
    36    18    19    1
    37    19    37    1
    38    19    38    1
    39    19    39    1
    40    29    40    1
    41    30    40    1
    42    40    41    1
