@<TRIPOS>MOLECULE
ZINC00001266
 29 30 0 0 0
SMALL
GASTEIGER

@<TRIPOS>ATOM
      1 C           4.1034    2.3200    0.3487 C.3     1  UNL1       -0.0164
      2 C           3.6411    0.9109   -0.0278 C.3     1  UNL1        0.1946
      3 H           4.0377    0.1941    0.6913 H       1  UNL1        0.0857
      4 C           2.1352    0.8558   -0.0137 C.2     1  UNL1        0.2796
      5 C          -0.0188    1.5380    0.0105 C.3     1  UNL1        0.1198
      6 C           0.0021   -0.0041    0.0020 C.3     1  UNL1        0.1150
      7 N           1.4412   -0.3172   -0.0134 N.pl3   1  UNL1       -0.2339
      8 O           4.1174    0.5869   -1.3355 O.3     1  UNL1       -0.4742
      9 C           5.3343   -0.0137   -1.4180 C.ar    1  UNL1        0.1582
     10 C           6.4826    0.7559   -1.5409 C.ar    1  UNL1        0.0840
     11 C           7.7193    0.1426   -1.6183 C.ar    1  UNL1       -0.0397
     12 C           7.8117   -1.2365   -1.5856 C.ar    1  UNL1       -0.0588
     13 C           6.6690   -2.0060   -1.4689 C.ar    1  UNL1       -0.0397
     14 C           5.4301   -1.3979   -1.3850 C.ar    1  UNL1        0.0840
     15 CL          3.9958   -2.3649   -1.2379 Cl      1  UNL1       -0.0797
     16 CL          6.3669    2.4874   -1.5898 Cl      1  UNL1       -0.0797
     17 H           3.7401    2.5671    1.3462 H       1  UNL1        0.0271
     18 H           5.1926    2.3598    0.3385 H       1  UNL1        0.0271
     19 H           3.7068    3.0367   -0.3704 H       1  UNL1        0.0271
     20 H          -0.5209    1.9188   -0.8789 H       1  UNL1        0.0782
     21 H          -0.5038    1.9091    0.9134 H       1  UNL1        0.0782
     22 H          -0.4689   -0.4007    0.9014 H       1  UNL1        0.0764
     23 H          -0.4887   -0.3911   -0.8910 H       1  UNL1        0.0764
     24 H           1.8289   -1.2063   -0.0219 H       1  UNL1        0.2911
     25 H           8.6137    0.7412   -1.7088 H       1  UNL1        0.0633
     26 H           8.7784   -1.7137   -1.6510 H       1  UNL1        0.0618
     27 H           6.7441   -3.0831   -1.4437 H       1  UNL1        0.0633
     28 N           1.4051    1.9131   -0.0011 N.2     1  UNL1       -0.2726
     29 H           1.7614    2.8761    0.0006 H       1  UNL1        0.3037
@<TRIPOS>UNITY_ATOM_ATTR
28 1
charge 1
@<TRIPOS>BOND
     1     1     2    1
     2     1    17    1
     3     1    18    1
     4     1    19    1
     5     2     3    1
     6     2     4    1
     7     2     8    1
     8     4     7    1
     9     4    28    2
    10     5     6    1
    11     5    20    1
    12     5    21    1
    13     5    28    1
    14     6     7    1
    15     6    22    1
    16     6    23    1
    17     7    24    1
    18     8     9    1
    19     9    14   ar
    20     9    10   ar
    21    10    11   ar
    22    10    16    1
    23    11    12   ar
    24    11    25    1
    25    12    13   ar
    26    12    26    1
    27    13    14   ar
    28    13    27    1
    29    14    15    1
    30    28    29    1
