@<TRIPOS>MOLECULE
ZINC00896168
 24 24 0 0 0
SMALL
GASTEIGER

@<TRIPOS>ATOM
      1 C          -0.0127    1.0858    0.0080 C.3     1  UNL1        0.0730
      2 C          -0.7527    1.5927   -1.2315 C.3     1  UNL1        0.1130
      3 H          -0.8449    2.6776   -1.1815 H       1  UNL1        0.0647
      4 C           0.0305    1.2040   -2.4882 C.3     1  UNL1        0.1119
      5 H           1.0077    1.6867   -2.4722 H       1  UNL1        0.0647
      6 C          -0.7463    1.6618   -3.7265 C.3     1  UNL1        0.1141
      7 H          -0.2219    1.3390   -4.6258 H       1  UNL1        0.0648
      8 C          -2.1452    1.0385   -3.6974 C.3     1  UNL1        0.1339
      9 H          -2.0625   -0.0470   -3.7519 H       1  UNL1        0.0671
     10 C          -2.8444    1.4335   -2.3940 C.3     1  UNL1        0.1854
     11 H          -2.9642    2.5163   -2.3593 H       1  UNL1        0.0935
     12 O          -2.0545    1.0055   -1.2826 O.3     1  UNL1       -0.3407
     13 O          -4.1287    0.8098   -2.3342 O.3     1  UNL1       -0.3649
     14 O          -2.9040    1.5160   -4.8101 O.3     1  UNL1       -0.3841
     15 O          -0.8576    3.0865   -3.7213 O.3     1  UNL1       -0.3864
     16 O           0.1979   -0.2146   -2.5269 O.3     1  UNL1       -0.3865
     17 O          -0.6816    1.5467    1.1837 O.3     1  UNL1       -0.3924
     18 H           0.0021   -0.0041    0.0020 H       1  UNL1        0.0584
     19 H           1.0099    1.4631    0.0003 H       1  UNL1        0.0584
     20 H          -4.6289    1.0156   -1.5326 H       1  UNL1        0.2126
     21 H          -3.8041    1.1651   -4.8520 H       1  UNL1        0.2101
     22 H          -1.3450    3.4456   -4.4753 H       1  UNL1        0.2100
     23 H           0.6868   -0.5321   -3.2985 H       1  UNL1        0.2100
     24 H          -0.2663    1.2624    2.0094 H       1  UNL1        0.2095
@<TRIPOS>BOND
     1     1     2    1
     2     1    17    1
     3     1    18    1
     4     1    19    1
     5     2     3    1
     6     2    12    1
     7     2     4    1
     8     4     5    1
     9     4     6    1
    10     4    16    1
    11     6     7    1
    12     6     8    1
    13     6    15    1
    14     8     9    1
    15     8    10    1
    16     8    14    1
    17    10    11    1
    18    10    12    1
    19    10    13    1
    20    13    20    1
    21    14    21    1
    22    15    22    1
    23    16    23    1
    24    17    24    1
