@<TRIPOS>MOLECULE
ZINC03830175
 21 21 0 0 0
SMALL
GASTEIGER

@<TRIPOS>ATOM
      1 C           1.2631    1.4292   -0.8373 C.3     1  UNL1        0.0125
      2 C           1.1473   -0.0727   -0.7926 C.2     1  UNL1        0.2141
      3 O           2.0866   -0.7425   -0.4180 O.2     1  UNL1       -0.2758
      4 N           0.0001   -0.6716   -1.1688 N.am    1  UNL1       -0.2840
      5 C          -0.0741   -2.0686   -1.2265 C.ar    1  UNL1        0.0606
      6 C          -0.4624   -2.7909   -0.1036 C.ar    1  UNL1        0.0366
      7 C          -0.5375   -4.1708   -0.1547 C.ar    1  UNL1       -0.0330
      8 C          -0.2279   -4.8411   -1.3211 C.ar    1  UNL1        0.0243
      9 C           0.1629   -4.1247   -2.4553 C.ar    1  UNL1        0.0254
     10 C           0.2339   -2.7308   -2.4044 C.ar    1  UNL1        0.0454
     11 I           0.8117   -1.6450   -4.1004 I       1  UNL1       -0.0412
     12 C           0.4948   -4.8383   -3.7044 C.2     1  UNL1        0.0737
     13 O          -0.3735   -5.0660   -4.5229 O.co2   1  UNL1       -0.5446
     14 I          -0.3434   -6.9317   -1.3905 I       1  UNL1       -0.0431
     15 I          -0.9348   -1.7851    1.6724 I       1  UNL1       -0.0418
     16 H           1.6368    1.7359   -1.8142 H       1  UNL1        0.0323
     17 H           0.2828    1.8744   -0.6671 H       1  UNL1        0.0323
     18 H           1.9534    1.7636   -0.0629 H       1  UNL1        0.0323
     19 H          -0.7742   -0.1349   -1.3997 H       1  UNL1        0.1549
     20 H          -0.8391   -4.7261    0.7212 H       1  UNL1        0.0639
     21 O           1.7606   -5.2370   -3.9364 O.co2   1  UNL1       -0.5446
@<TRIPOS>UNITY_ATOM_ATTR
21 1
charge -1
@<TRIPOS>BOND
     1     1     2    1
     2     1    16    1
     3     1    17    1
     4     1    18    1
     5     2     3    2
     6     2     4   am
     7     4     5    1
     8     4    19    1
     9     5    10   ar
    10     5     6   ar
    11     6     7   ar
    12     6    15    1
    13     7     8   ar
    14     7    20    1
    15     8     9   ar
    16     8    14    1
    17     9    10   ar
    18     9    12    1
    19    10    11    1
    20    12    13   ar
    21    12    21   ar
