@<TRIPOS>MOLECULE
ZINC03831102
 93 96 0 0 0
SMALL
GASTEIGER

@<TRIPOS>ATOM
      1 C           0.0832    4.9359   -1.4986 C.3     1  UNL1       -0.0587
      2 C           0.5146    4.0772   -0.3060 C.3     1  UNL1       -0.0212
      3 H          -0.1528    4.3000    0.5365 H       1  UNL1        0.0343
      4 C           1.9394    4.4539    0.0897 C.3     1  UNL1       -0.0432
      5 C           2.6302    3.2578    0.7264 C.3     1  UNL1       -0.0308
      6 H           1.9478    2.8592    1.5017 H       1  UNL1        0.0308
      7 C           3.9270    3.6177    1.4228 C.3     1  UNL1       -0.0292
      8 H           4.1588    2.8446    2.1831 H       1  UNL1        0.0310
      9 C           3.7561    4.9872    2.1199 C.3     1  UNL1       -0.0463
     10 C           4.2801    6.0227    1.1129 C.3     1  UNL1       -0.0161
     11 C           5.3176    5.2882    0.2341 C.3     1  UNL1        0.1326
     12 C           5.1308    3.7918    0.4956 C.3     1  UNL1        0.0092
     13 C           5.1591    2.9044   -0.7123 C.3     1  UNL1       -0.0178
     14 C           3.8215    2.5488   -1.3504 C.3     1  UNL1        0.0600
     15 H           4.0420    1.6755   -2.0021 H       1  UNL1        0.0596
     16 C           2.8178    2.1391   -0.2936 C.3     1  UNL1        0.0007
     17 H           3.2635    1.2871    0.2697 H       1  UNL1        0.0340
     18 C           1.4862    1.6557   -0.7971 C.3     1  UNL1        0.0133
     19 C           0.3633    2.6278   -0.6566 C.2     1  UNL1       -0.0531
     20 C          -0.9023    2.1789   -0.8372 C.2     1  UNL1       -0.0146
     21 C          -1.0411    0.7326   -1.1488 C.2     1  UNL1        0.1787
     22 O          -1.8373    0.3051   -1.9633 O.2     1  UNL1       -0.2879
     23 C          -0.1242   -0.1517   -0.3791 C.2     1  UNL1       -0.0180
     24 C           1.1266    0.3165   -0.2050 C.2     1  UNL1       -0.0701
     25 C           1.6142    1.3872   -2.2900 C.3     1  UNL1       -0.0520
     26 O           3.3689    3.6011   -2.1916 O.3     1  UNL1       -0.3914
     27 C           6.3706    3.3629    1.3414 C.3     1  UNL1       -0.0562
     28 C           5.1435    5.6811   -1.2082 C.2     1  UNL1        0.2022
     29 O           4.0543    6.0017   -1.6194 O.2     1  UNL1       -0.2907
     30 C           6.3285    5.6745   -2.1392 C.3     1  UNL1        0.1530
     31 O           5.8839    5.9657   -3.4905 O.3     1  UNL1       -0.4568
     32 C           6.8243    5.9975   -4.4478 C.2     1  UNL1        0.3075
     33 O           7.9805    5.7890   -4.1661 O.2     1  UNL1       -0.2508
     34 C           6.4378    6.2934   -5.8741 C.3     1  UNL1        0.0450
     35 C           7.6875    6.2695   -6.7565 C.3     1  UNL1       -0.0430
     36 C           7.2951    6.5699   -8.2045 C.3     1  UNL1       -0.0525
     37 C           8.5448    6.5460   -9.0869 C.3     1  UNL1       -0.0526
     38 C           8.1525    6.8464  -10.5350 C.3     1  UNL1       -0.0448
     39 C           9.4021    6.8225  -11.4174 C.3     1  UNL1        0.0241
     40 C           9.0157    7.1184  -12.8436 C.2     1  UNL1        0.2154
     41 O           7.8550    7.3277  -13.1265 O.2     1  UNL1       -0.2756
     42 N           9.9598    7.1504  -13.8049 N.am    1  UNL1       -0.3030
     43 C          11.3618    6.8975  -13.4632 C.3     1  UNL1        0.0032
     44 C           9.5842    7.4380  -15.1914 C.3     1  UNL1        0.0328
     45 C           9.6492    8.9471  -15.4348 C.3     1  UNL1        0.0704
     46 S           9.1841    9.3032  -17.1516 S.3     1  UNL1       -0.0791
     47 O          10.1715    8.7996  -18.0408 O.2     1  UNL1       -0.1853
     48 O           7.8084    9.0118  -17.3565 O.2     1  UNL1       -0.1853
     49 O           6.6414    5.6783    0.6580 O.3     1  UNL1       -0.3804
     50 H           0.7563    4.7576   -2.3371 H       1  UNL1        0.0235
     51 H          -0.9343    4.6721   -1.7870 H       1  UNL1        0.0235
     52 H           0.1205    5.9891   -1.2203 H       1  UNL1        0.0235
     53 H           1.8782    5.2770    0.8185 H       1  UNL1        0.0274
     54 H           2.4827    4.8311   -0.7713 H       1  UNL1        0.0274
     55 H           4.3542    5.0216    3.0343 H       1  UNL1        0.0269
     56 H           2.7135    5.1750    2.3649 H       1  UNL1        0.0269
     57 H           4.7609    6.8494    1.6404 H       1  UNL1        0.0297
     58 H           3.4691    6.4046    0.4956 H       1  UNL1        0.0297
     59 H           5.6182    1.9416   -0.3935 H       1  UNL1        0.0297
     60 H           5.8386    3.2872   -1.4720 H       1  UNL1        0.0297
     61 H          -1.7622    2.8325   -0.7545 H       1  UNL1        0.0656
     62 H          -0.4422   -1.1096    0.0128 H       1  UNL1        0.0653
     63 H           1.8634   -0.2543    0.3497 H       1  UNL1        0.0582
     64 H           0.6653    1.0133   -2.6745 H       1  UNL1        0.0241
     65 H           1.8756    2.3119   -2.8044 H       1  UNL1        0.0241
     66 H           2.3933    0.6441   -2.4600 H       1  UNL1        0.0241
     67 H           3.9698    3.8082   -2.9203 H       1  UNL1        0.2098
     68 H           7.2771    3.4977    0.7514 H       1  UNL1        0.0236
     69 H           6.4273    3.9770    2.2401 H       1  UNL1        0.0236
     70 H           6.2730    2.3145    1.6232 H       1  UNL1        0.0236
     71 H           6.9856    6.3695   -1.8473 H       1  UNL1        0.0779
     72 H           6.8030    4.6935   -2.1164 H       1  UNL1        0.0779
     73 H           5.7321    5.5396   -6.2231 H       1  UNL1        0.0377
     74 H           5.9737    7.2782   -5.9280 H       1  UNL1        0.0377
     75 H           8.3932    7.0233   -6.4074 H       1  UNL1        0.0270
     76 H           8.1516    5.2847   -6.7026 H       1  UNL1        0.0270
     77 H           6.5894    5.8161   -8.5536 H       1  UNL1        0.0265
     78 H           6.8311    7.5547   -8.2584 H       1  UNL1        0.0265
     79 H           9.2505    7.2998   -8.7379 H       1  UNL1        0.0265
     80 H           9.0089    5.5612   -9.0331 H       1  UNL1        0.0265
     81 H           7.4467    6.0926  -10.8840 H       1  UNL1        0.0270
     82 H           7.6884    7.8312  -10.5888 H       1  UNL1        0.0270
     83 H          10.1078    7.5763  -11.0683 H       1  UNL1        0.0358
     84 H           9.8662    5.8377  -11.3635 H       1  UNL1        0.0358
     85 H          11.5700    5.8310  -13.5489 H       1  UNL1        0.0428
     86 H          12.0075    7.4497  -14.1460 H       1  UNL1        0.0428
     87 H          11.5511    7.2236  -12.4405 H       1  UNL1        0.0428
     88 H          10.2729    6.9309  -15.8671 H       1  UNL1        0.0480
     89 H           8.5696    7.0839  -15.3738 H       1  UNL1        0.0480
     90 H           8.9605    9.4541  -14.7591 H       1  UNL1        0.0505
     91 H          10.6638    9.3011  -15.2524 H       1  UNL1        0.0505
     92 H           6.8367    6.6159    0.5243 H       1  UNL1        0.2108
     93 O           9.2834   10.8167  -17.2779 O.co2   1  UNL1       -0.7245
@<TRIPOS>UNITY_ATOM_ATTR
93 1
charge -1
@<TRIPOS>BOND
     1     1     2    1
     2     1    50    1
     3     1    51    1
     4     1    52    1
     5     2     3    1
     6     2    19    1
     7     2     4    1
     8     4     5    1
     9     4    53    1
    10     4    54    1
    11     5     6    1
    12     5    16    1
    13     5     7    1
    14     7     8    1
    15     7    12    1
    16     7     9    1
    17     9    10    1
    18     9    55    1
    19     9    56    1
    20    10    11    1
    21    10    57    1
    22    10    58    1
    23    11    12    1
    24    11    28    1
    25    11    49    1
    26    12    13    1
    27    12    27    1
    28    13    14    1
    29    13    59    1
    30    13    60    1
    31    14    15    1
    32    14    16    1
    33    14    26    1
    34    16    17    1
    35    16    18    1
    36    18    24    1
    37    18    19    1
    38    18    25    1
    39    19    20    2
    40    20    21    1
    41    20    61    1
    42    21    22    2
    43    21    23    1
    44    23    24    2
    45    23    62    1
    46    24    63    1
    47    25    64    1
    48    25    65    1
    49    25    66    1
    50    26    67    1
    51    27    68    1
    52    27    69    1
    53    27    70    1
    54    28    29    2
    55    28    30    1
    56    30    31    1
    57    30    71    1
    58    30    72    1
    59    31    32    1
    60    32    33    2
    61    32    34    1
    62    34    35    1
    63    34    73    1
    64    34    74    1
    65    35    36    1
    66    35    75    1
    67    35    76    1
    68    36    37    1
    69    36    77    1
    70    36    78    1
    71    37    38    1
    72    37    79    1
    73    37    80    1
    74    38    39    1
    75    38    81    1
    76    38    82    1
    77    39    40    1
    78    39    83    1
    79    39    84    1
    80    40    41    2
    81    40    42   am
    82    42    43    1
    83    42    44    1
    84    43    85    1
    85    43    86    1
    86    43    87    1
    87    44    45    1
    88    44    88    1
    89    44    89    1
    90    45    46    1
    91    45    90    1
    92    45    91    1
    93    46    47    2
    94    46    48    2
    95    46    93    1
    96    49    92    1
