@<TRIPOS>MOLECULE
ZINC03977884
 55 58 0 0 0
SMALL
GASTEIGER

@<TRIPOS>ATOM
      1 C          -2.8879    0.5482    0.7629 C.3     1  UNL1       -0.0553
      2 C          -1.7643    0.6725    1.7905 C.3     1  UNL1       -0.0032
      3 C          -1.1216   -0.7079    1.9945 C.3     1  UNL1       -0.0363
      4 C          -2.1613   -1.7069    2.4996 C.3     1  UNL1        0.0107
      5 C          -2.8565   -1.1564    3.7155 C.2     1  UNL1        0.1564
      6 O          -3.4113   -1.9171    4.4849 O.2     1  UNL1       -0.2927
      7 C          -2.8740    0.2213    3.9733 C.2     1  UNL1       -0.0155
      8 C          -2.3471    1.1216    3.1091 C.2     1  UNL1       -0.0382
      9 C          -2.3572    2.5378    3.4602 C.2     1  UNL1       -0.0616
     10 C          -1.8029    3.4564    2.6801 C.2     1  UNL1       -0.0801
     11 C          -1.1110    3.1082    1.3894 C.3     1  UNL1       -0.0156
     12 H          -0.1905    3.7254    1.3486 H       1  UNL1        0.0349
     13 C          -0.6920    1.6567    1.3487 C.3     1  UNL1       -0.0251
     14 H           0.1263    1.5582    2.1146 H       1  UNL1        0.0315
     15 C          -0.0494    1.2830    0.0259 C.3     1  UNL1       -0.0483
     16 C          -0.7628    1.7960   -1.2019 C.3     1  UNL1       -0.0444
     17 C          -1.3500    3.1774   -1.1323 C.3     1  UNL1        0.0001
     18 C          -1.9908    3.5258    0.2164 C.3     1  UNL1       -0.0264
     19 H          -3.0071    3.1182    0.2979 H       1  UNL1        0.0313
     20 C          -2.0294    5.0807    0.2084 C.3     1  UNL1       -0.0465
     21 C          -0.7793    5.5074   -0.5825 C.3     1  UNL1       -0.0232
     22 C          -0.3897    4.3149   -1.4799 C.3     1  UNL1        0.0721
     23 C           1.0737    3.9483   -1.2449 C.3     1  UNL1       -0.0184
     24 C           1.9534    5.1745   -1.4964 C.3     1  UNL1       -0.0106
     25 C           3.3978    4.8127   -1.2644 C.2     1  UNL1        0.0418
     26 O           3.6933    3.6893   -0.9321 O.co2   1  UNL1       -0.5498
     27 O          -0.5689    4.6855   -2.8563 O.3     1  UNL1       -0.3880
     28 C          -2.4843    3.2215   -2.1871 C.3     1  UNL1       -0.0567
     29 H          -3.3833    1.5123    0.6478 H       1  UNL1        0.0238
     30 H          -2.4713    0.2372   -0.1952 H       1  UNL1        0.0238
     31 H          -3.6107   -0.1935    1.1027 H       1  UNL1        0.0238
     32 H          -0.7131   -1.0600    1.0466 H       1  UNL1        0.0278
     33 H          -0.3132   -0.6177    2.7230 H       1  UNL1        0.0278
     34 H          -2.8321   -1.8828    1.7791 H       1  UNL1        0.0345
     35 H          -1.6519   -2.6377    2.7800 H       1  UNL1        0.0345
     36 H          -3.3253    0.5781    4.8883 H       1  UNL1        0.0655
     37 H          -2.8368    2.8468    4.3802 H       1  UNL1        0.0617
     38 H          -1.8504    4.4960    2.9858 H       1  UNL1        0.0575
     39 H           0.0202    0.1828   -0.0404 H       1  UNL1        0.0269
     40 H           0.9941    1.6337    0.0287 H       1  UNL1        0.0269
     41 H          -0.0766    1.7465   -2.0634 H       1  UNL1        0.0272
     42 H          -1.5727    1.0951   -1.4681 H       1  UNL1        0.0272
     43 H          -2.9380    5.4433   -0.2742 H       1  UNL1        0.0269
     44 H          -1.9808    5.4679    1.2302 H       1  UNL1        0.0269
     45 H          -1.0055    6.3781   -1.2012 H       1  UNL1        0.0293
     46 H           0.0388    5.7449    0.0984 H       1  UNL1        0.0293
     47 H           1.2035    3.6129   -0.2159 H       1  UNL1        0.0297
     48 H           1.3619    3.1483   -1.9269 H       1  UNL1        0.0297
     49 H           1.8236    5.5099   -2.5254 H       1  UNL1        0.0326
     50 H           1.6652    5.9745   -0.8144 H       1  UNL1        0.0326
     51 H           0.0090    5.4036   -3.1487 H       1  UNL1        0.2102
     52 H          -3.2387    2.4743   -1.9409 H       1  UNL1        0.0236
     53 H          -2.9405    4.2115   -2.1890 H       1  UNL1        0.0236
     54 H          -2.0716    3.0098   -3.1735 H       1  UNL1        0.0236
     55 O           4.3561    5.7384   -1.4271 O.co2   1  UNL1       -0.5498
@<TRIPOS>UNITY_ATOM_ATTR
55 1
charge -1
@<TRIPOS>BOND
     1     1     2    1
     2     1    29    1
     3     1    30    1
     4     1    31    1
     5     2     8    1
     6     2    13    1
     7     2     3    1
     8     3     4    1
     9     3    32    1
    10     3    33    1
    11     4     5    1
    12     4    34    1
    13     4    35    1
    14     5     6    2
    15     5     7    1
    16     7     8    2
    17     7    36    1
    18     8     9    1
    19     9    10    2
    20     9    37    1
    21    10    11    1
    22    10    38    1
    23    11    12    1
    24    11    18    1
    25    11    13    1
    26    13    14    1
    27    13    15    1
    28    15    16    1
    29    15    39    1
    30    15    40    1
    31    16    17    1
    32    16    41    1
    33    16    42    1
    34    17    22    1
    35    17    18    1
    36    17    28    1
    37    18    19    1
    38    18    20    1
    39    20    21    1
    40    20    43    1
    41    20    44    1
    42    21    22    1
    43    21    45    1
    44    21    46    1
    45    22    23    1
    46    22    27    1
    47    23    24    1
    48    23    47    1
    49    23    48    1
    50    24    25    1
    51    24    49    1
    52    24    50    1
    53    25    26   ar
    54    25    55   ar
    55    27    51    1
    56    28    52    1
    57    28    53    1
    58    28    54    1
