@<TRIPOS>MOLECULE
ZINC00897074
 42 43 0 0 0
SMALL
GASTEIGER

@<TRIPOS>ATOM
      1 C          -2.3746   -6.1345    0.8565 C.3     1  UNL1       -0.0647
      2 C          -2.0657   -4.6601    0.5889 C.3     1  UNL1       -0.0482
      3 C          -0.5874   -4.5064    0.2257 C.3     1  UNL1       -0.0059
      4 H           0.0270   -4.9551    1.0062 H       1  UNL1        0.0357
      5 C          -0.2505   -3.0429    0.1002 C.ar    1  UNL1       -0.0428
      6 C          -1.1150   -2.1964   -0.5915 C.ar    1  UNL1       -0.0577
      7 C          -0.8401   -0.8701   -0.7235 C.ar    1  UNL1       -0.0537
      8 C           0.3323   -0.3427   -0.1545 C.ar    1  UNL1       -0.0144
      9 C           0.6488    1.0207   -0.2708 C.ar    1  UNL1       -0.0122
     10 C           1.7969    1.4978    0.2944 C.ar    1  UNL1        0.1207
     11 C           2.6626    0.6463    0.9882 C.ar    1  UNL1       -0.0194
     12 C           2.3845   -0.6784    1.1184 C.ar    1  UNL1       -0.0506
     13 C           1.2112   -1.2038    0.5492 C.ar    1  UNL1       -0.0174
     14 C           0.8938   -2.5679    0.6636 C.ar    1  UNL1       -0.0505
     15 O           2.1023    2.8170    0.1808 O.3     1  UNL1       -0.4951
     16 C           3.3164    3.2569    0.7928 C.3     1  UNL1        0.0788
     17 C          -0.3137   -5.2087   -1.1058 C.3     1  UNL1        0.0113
     18 C          -1.4585   -4.9206   -2.0791 C.3     1  UNL1       -0.0541
     19 C           0.9996   -4.6905   -1.6953 C.3     1  UNL1       -0.0541
     20 C          -0.2102   -6.6948   -0.8779 C.2     1  UNL1        0.0479
     21 O           0.1477   -7.1178    0.1958 O.co2   1  UNL1       -0.5492
     22 H          -3.3408   -6.2188    1.3539 H       1  UNL1        0.0230
     23 H          -2.4038   -6.6769   -0.0885 H       1  UNL1        0.0230
     24 H          -1.5991   -6.5581    1.4948 H       1  UNL1        0.0230
     25 H          -2.2829   -4.0753    1.4827 H       1  UNL1        0.0269
     26 H          -2.6817   -4.3039   -0.2368 H       1  UNL1        0.0269
     27 H          -2.0164   -2.5989   -1.0295 H       1  UNL1        0.0621
     28 H          -1.5189   -0.2261   -1.2628 H       1  UNL1        0.0624
     29 H          -0.0097    1.6872   -0.8080 H       1  UNL1        0.0660
     30 H           3.5646    1.0466    1.4270 H       1  UNL1        0.0654
     31 H           3.0623   -1.3243    1.6566 H       1  UNL1        0.0625
     32 H           1.5545   -3.2360    1.1961 H       1  UNL1        0.0626
     33 H           3.2769    3.0566    1.8635 H       1  UNL1        0.0660
     34 H           4.1589    2.7224    0.3539 H       1  UNL1        0.0660
     35 H           3.4394    4.3273    0.6277 H       1  UNL1        0.0660
     36 H          -1.4563   -3.8621   -2.3395 H       1  UNL1        0.0239
     37 H          -1.3267   -5.5171   -2.9819 H       1  UNL1        0.0239
     38 H          -2.4080   -5.1772   -1.6095 H       1  UNL1        0.0239
     39 H           1.8151   -4.8958   -1.0018 H       1  UNL1        0.0239
     40 H           1.1946   -5.1908   -2.6438 H       1  UNL1        0.0239
     41 H           0.9247   -3.6156   -1.8601 H       1  UNL1        0.0239
     42 O          -0.5157   -7.5485   -1.8676 O.co2   1  UNL1       -0.5492
@<TRIPOS>UNITY_ATOM_ATTR
42 1
charge -1
@<TRIPOS>BOND
     1     1     2    1
     2     1    22    1
     3     1    23    1
     4     1    24    1
     5     2     3    1
     6     2    25    1
     7     2    26    1
     8     3     4    1
     9     3     5    1
    10     3    17    1
    11     5    14   ar
    12     5     6   ar
    13     6     7   ar
    14     6    27    1
    15     7     8   ar
    16     7    28    1
    17     8    13   ar
    18     8     9   ar
    19     9    10   ar
    20     9    29    1
    21    10    11   ar
    22    10    15    1
    23    11    12   ar
    24    11    30    1
    25    12    13   ar
    26    12    31    1
    27    13    14   ar
    28    14    32    1
    29    15    16    1
    30    16    33    1
    31    16    34    1
    32    16    35    1
    33    17    18    1
    34    17    19    1
    35    17    20    1
    36    18    36    1
    37    18    37    1
    38    18    38    1
    39    19    39    1
    40    19    40    1
    41    19    41    1
    42    20    21   ar
    43    20    42   ar
