@<TRIPOS>MOLECULE
ZINC15848217
 31 32 0 0 0
SMALL
GASTEIGER

@<TRIPOS>ATOM
      1 C          -0.0127    1.0858    0.0080 C.3     1  UNL1        0.0024
      2 N          -0.6984    1.5583    1.2133 N.pl3   1  UNL1       -0.3119
      3 C          -0.0420    1.8383    2.4912 C.3     1  UNL1        0.1346
      4 H           0.6991    2.6283    2.3694 H       1  UNL1        0.0737
      5 C          -1.1627    2.3014    3.4350 C.3     1  UNL1        0.0119
      6 C          -2.4176    2.2466    2.5877 C.2     1  UNL1       -0.0207
      7 C          -3.6987    2.5477    2.9082 C.2     1  UNL1       -0.0260
      8 C          -4.7252    2.4382    1.9358 C.2     1  UNL1        0.1288
      9 N          -5.9769    2.7347    2.2368 N.2     1  UNL1       -0.1754
     10 N          -6.2764    3.1384    3.4248 N.am    1  UNL1       -0.1903
     11 C          -7.5534    3.4408    3.7318 C.2     1  UNL1        0.3165
     12 O          -7.8355    3.8211    4.8510 O.2     1  UNL1       -0.2513
     13 N          -8.5175    3.3214    2.7977 N.am    1  UNL1       -0.3120
     14 C          -4.3624    1.9747    0.5822 C.2     1  UNL1        0.2074
     15 O          -5.2151    1.8575   -0.2857 O.2     1  UNL1       -0.2855
     16 C          -3.0251    1.6729    0.3123 C.2     1  UNL1        0.0086
     17 C          -2.0587    1.8084    1.3017 C.2     1  UNL1        0.0379
     18 S           0.7415    0.3351    3.1371 S.3     1  UNL1       -0.0606
     19 O           1.4988    0.6391    4.3004 O.2     1  UNL1       -0.1835
     20 O          -0.1881   -0.7396    3.1382 O.2     1  UNL1       -0.1835
     21 H           0.0021   -0.0041    0.0020 H       1  UNL1        0.0428
     22 H           1.0099    1.4631    0.0003 H       1  UNL1        0.0428
     23 H          -0.5399    1.4469   -0.8751 H       1  UNL1        0.0428
     24 H          -1.2478    1.6250    4.2854 H       1  UNL1        0.0348
     25 H          -0.9761    3.3195    3.7766 H       1  UNL1        0.0348
     26 H          -3.9376    2.8858    3.9057 H       1  UNL1        0.0644
     27 H          -5.5825    3.2243    4.0971 H       1  UNL1        0.1788
     28 H          -8.2923    3.0179    1.9044 H       1  UNL1        0.1465
     29 H          -9.4366    3.5391    3.0187 H       1  UNL1        0.1465
     30 H          -2.7404    1.3323   -0.6722 H       1  UNL1        0.0675
     31 O           1.7766   -0.0478    2.0890 O.co2   1  UNL1       -0.7230
@<TRIPOS>UNITY_ATOM_ATTR
31 1
charge -1
@<TRIPOS>BOND
     1     1     2    1
     2     1    21    1
     3     1    22    1
     4     1    23    1
     5     2    17    1
     6     2     3    1
     7     3     4    1
     8     3     5    1
     9     3    18    1
    10     5     6    1
    11     5    24    1
    12     5    25    1
    13     6    17    1
    14     6     7    2
    15     7     8    1
    16     7    26    1
    17     8     9    2
    18     8    14    1
    19     9    10    1
    20    10    11   am
    21    10    27    1
    22    11    12    2
    23    11    13   am
    24    13    28    1
    25    13    29    1
    26    14    15    2
    27    14    16    1
    28    16    17    2
    29    16    30    1
    30    18    19    2
    31    18    20    2
    32    18    31    1
