@<TRIPOS>MOLECULE
ZINC00968306
 40 41 0 0 0
SMALL
GASTEIGER

@<TRIPOS>ATOM
      1 C           6.4858   -1.1952   -0.8322 C.3     1  UNL1       -0.0213
      2 C           5.2723   -1.8536   -1.4917 C.3     1  UNL1       -0.0196
      3 H           5.0298   -2.7772   -0.9661 H       1  UNL1        0.0852
      4 C           5.5946   -2.1683   -2.9538 C.3     1  UNL1        0.0153
      5 C           4.4467   -2.9262   -3.5694 C.ar    1  UNL1       -0.0421
      6 C           4.4266   -4.3076   -3.5232 C.ar    1  UNL1       -0.0584
      7 C           3.3712   -5.0026   -4.0836 C.ar    1  UNL1       -0.0615
      8 C           2.3411   -4.3166   -4.6994 C.ar    1  UNL1       -0.0617
      9 C           2.3638   -2.9353   -4.7502 C.ar    1  UNL1       -0.0615
     10 C           3.4166   -2.2401   -4.1852 C.ar    1  UNL1       -0.0584
     11 C           4.4247    0.3294   -2.1073 C.3     1  UNL1       -0.0425
     12 C           3.7112   -0.7071   -0.0387 C.3     1  UNL1       -0.0059
     13 C           2.3960    0.0285   -0.0217 C.ar    1  UNL1       -0.0029
     14 C           1.2084   -0.6789   -0.0136 C.ar    1  UNL1       -0.0535
     15 C           0.0021   -0.0041    0.0020 C.ar    1  UNL1       -0.0613
     16 C          -0.0167    1.3781    0.0096 C.ar    1  UNL1       -0.0617
     17 C           1.1709    2.0855    0.0021 C.ar    1  UNL1       -0.0613
     18 C           2.3773    1.4107   -0.0136 C.ar    1  UNL1       -0.0535
     19 H           6.7284   -0.2716   -1.3578 H       1  UNL1        0.0284
     20 H           6.2562   -0.9710    0.2095 H       1  UNL1        0.0284
     21 H           7.3374   -1.8740   -0.8786 H       1  UNL1        0.0284
     22 H           5.7502   -1.2379   -3.5000 H       1  UNL1        0.0368
     23 H           6.4990   -2.7747   -3.0042 H       1  UNL1        0.0368
     24 H           5.2335   -4.8437   -3.0460 H       1  UNL1        0.0620
     25 H           3.3536   -6.0817   -4.0442 H       1  UNL1        0.0618
     26 H           1.5187   -4.8597   -5.1411 H       1  UNL1        0.0618
     27 H           1.5592   -2.3994   -5.2316 H       1  UNL1        0.0618
     28 H           3.4345   -1.1610   -4.2252 H       1  UNL1        0.0620
     29 H           5.2326    0.8396   -1.5828 H       1  UNL1        0.0778
     30 H           4.7282    0.1289   -3.1349 H       1  UNL1        0.0778
     31 H           3.5360    0.9605   -2.1075 H       1  UNL1        0.0778
     32 H           4.4678   -0.1105    0.4708 H       1  UNL1        0.0867
     33 H           3.5989   -1.6640    0.4711 H       1  UNL1        0.0867
     34 H           1.2231   -1.7587   -0.0199 H       1  UNL1        0.0622
     35 H          -0.9258   -0.5567    0.0079 H       1  UNL1        0.0618
     36 H          -0.9592    1.9054    0.0170 H       1  UNL1        0.0618
     37 H           1.1563    3.1654    0.0077 H       1  UNL1        0.0618
     38 H           3.3051    1.9634   -0.0195 H       1  UNL1        0.0622
     39 N           4.1027   -0.9511   -1.4429 N.4     1  UNL1        0.2385
     40 H           3.3186   -1.3945   -1.9356 H       1  UNL1        0.2037
@<TRIPOS>UNITY_ATOM_ATTR
39 1
charge 1
@<TRIPOS>BOND
     1     1     2    1
     2     1    19    1
     3     1    20    1
     4     1    21    1
     5     2     3    1
     6     2     4    1
     7     2    39    1
     8     4     5    1
     9     4    22    1
    10     4    23    1
    11     5    10   ar
    12     5     6   ar
    13     6     7   ar
    14     6    24    1
    15     7     8   ar
    16     7    25    1
    17     8     9   ar
    18     8    26    1
    19     9    10   ar
    20     9    27    1
    21    10    28    1
    22    11    29    1
    23    11    30    1
    24    11    31    1
    25    11    39    1
    26    12    13    1
    27    12    32    1
    28    12    33    1
    29    12    39    1
    30    13    18   ar
    31    13    14   ar
    32    14    15   ar
    33    14    34    1
    34    15    16   ar
    35    15    35    1
    36    16    17   ar
    37    16    36    1
    38    17    18   ar
    39    17    37    1
    40    18    38    1
    41    39    40    1
