@<TRIPOS>MOLECULE
ZINC03830444
 51 54 0 0 0
SMALL
GASTEIGER

@<TRIPOS>ATOM
      1 C          -6.9229    2.8099    4.6522 C.3     1  UNL1        0.0346
      2 N          -7.2842    2.6811    3.2384 N.ar    1  UNL1       -0.2233
      3 C          -6.4572    2.7527    2.1687 C.ar    1  UNL1        0.2094
      4 N          -7.1972    2.5771    1.0954 N.ar    1  UNL1       -0.1015
      5 N          -8.4278    2.4066    1.4205 N.ar    1  UNL1       -0.0222
      6 N          -8.5644    2.4593    2.7012 N.ar    1  UNL1       -0.0435
      7 S          -4.7165    3.0227    2.2075 S.3     1  UNL1       -0.0801
      8 C          -4.3519    2.9775    0.4351 C.3     1  UNL1        0.0251
      9 C          -2.8758    3.1922    0.2203 C.2     1  UNL1       -0.0264
     10 C          -2.1634    2.1008   -0.0055 C.2     1  UNL1        0.0608
     11 N          -0.7604    2.1723   -0.1950 N.am    1  UNL1       -0.2484
     12 C           0.0101    3.4082   -0.5212 C.3     1  UNL1        0.1320
     13 H           0.0653    3.6829   -1.5746 H       1  UNL1        0.0672
     14 C           1.1791    2.6015    0.0190 C.3     1  UNL1        0.2425
     15 C           0.2940    1.3753    0.0382 C.2     1  UNL1        0.2745
     16 O           0.4644    0.1843    0.1925 O.2     1  UNL1       -0.2701
     17 N           1.6076    3.0266    1.3539 N.am    1  UNL1       -0.2764
     18 C           0.7383    2.9925    2.3833 C.2     1  UNL1        0.2392
     19 O          -0.3986    2.6100    2.2045 O.2     1  UNL1       -0.2736
     20 C           1.1790    3.4298    3.7564 C.3     1  UNL1        0.1367
     21 S           2.7147    2.6308    4.3222 S.3     1  UNL1       -0.0936
     22 C           1.9310    2.5194    5.9129 C.2     1  UNL1        0.0576
     23 C           2.3756    2.4484    7.2404 C.2     1  UNL1        0.0785
     24 C           3.8042    2.3326    7.5276 C.2     1  UNL1        0.2448
     25 O           4.1835    2.1664    8.6726 O.2     1  UNL1       -0.2703
     26 N           4.7015    2.4099    6.5249 N.am    1  UNL1       -0.3253
     27 C           1.4408    2.4887    8.3033 C.2     1  UNL1        0.0782
     28 O           0.2474    2.4863    8.0645 O.co2   1  UNL1       -0.5444
     29 S           0.3487    2.5393    5.1108 S.3     1  UNL1       -0.0936
     30 O           2.2689    2.4965   -0.8995 O.3     1  UNL1       -0.3492
     31 C           3.3679    1.7244   -0.4115 C.3     1  UNL1        0.0396
     32 S          -0.6165    4.7195    0.5824 S.3     1  UNL1       -0.1285
     33 C          -2.4094    4.6099    0.2908 C.3     1  UNL1        0.0196
     34 C          -2.8360    0.7918   -0.0881 C.2     1  UNL1        0.0860
     35 O          -2.9920    0.1245    0.9153 O.co2   1  UNL1       -0.5433
     36 H          -6.9891    3.8563    4.9503 H       1  UNL1        0.0474
     37 H          -7.6072    2.2156    5.2577 H       1  UNL1        0.0474
     38 H          -5.9035    2.4537    4.8007 H       1  UNL1        0.0474
     39 H          -4.9110    3.7644   -0.0710 H       1  UNL1        0.0427
     40 H          -4.6408    2.0080    0.0294 H       1  UNL1        0.0427
     41 H           2.5169    3.3326    1.4968 H       1  UNL1        0.1520
     42 H           1.1777    4.5130    3.8781 H       1  UNL1        0.0629
     43 H           4.3976    2.4744    5.6060 H       1  UNL1        0.1453
     44 H           5.6512    2.4009    6.7222 H       1  UNL1        0.1453
     45 H           4.1533    1.6927   -1.1667 H       1  UNL1        0.0524
     46 H           3.7571    2.1811    0.4985 H       1  UNL1        0.0524
     47 H           3.0316    0.7106   -0.1941 H       1  UNL1        0.0524
     48 H          -2.9325    5.1157    1.1023 H       1  UNL1        0.0423
     49 H          -2.6474    5.1090   -0.6485 H       1  UNL1        0.0423
     50 O           1.8731    2.5300    9.5809 O.co2   1  UNL1       -0.5444
     51 O          -3.2780    0.3350   -1.2765 O.co2   1  UNL1       -0.5433
@<TRIPOS>UNITY_ATOM_ATTR
50 1
charge -1
51 1
charge -1
@<TRIPOS>BOND
     1     1     2    1
     2     1    36    1
     3     1    37    1
     4     1    38    1
     5     2     6   ar
     6     2     3   ar
     7     3     4   ar
     8     3     7    1
     9     4     5   ar
    10     5     6   ar
    11     7     8    1
    12     8     9    1
    13     8    39    1
    14     8    40    1
    15     9    33    1
    16     9    10    2
    17    10    11    1
    18    10    34    1
    19    11    15   am
    20    11    12    1
    21    12    13    1
    22    12    14    1
    23    12    32    1
    24    14    15    1
    25    14    17    1
    26    14    30    1
    27    15    16    2
    28    17    18   am
    29    17    41    1
    30    18    19    2
    31    18    20    1
    32    20    29    1
    33    20    21    1
    34    20    42    1
    35    21    22    1
    36    22    23    2
    37    22    29    1
    38    23    24    1
    39    23    27    1
    40    24    25    2
    41    24    26   am
    42    26    43    1
    43    26    44    1
    44    27    28   ar
    45    27    50   ar
    46    30    31    1
    47    31    45    1
    48    31    46    1
    49    31    47    1
    50    32    33    1
    51    33    48    1
    52    33    49    1
    53    34    35   ar
    54    34    51   ar
