@<TRIPOS>MOLECULE
ZINC08101183
 80 85 0 0 0
SMALL
GASTEIGER

@<TRIPOS>ATOM
      1 C           7.9643    7.6954   -0.7376 C.3     1  UNL1       -0.0361
      2 C           7.8515    6.4238    0.1058 C.3     1  UNL1        0.0873
      3 H           8.2688    5.5824   -0.4475 H       1  UNL1        0.0621
      4 C           8.6247    6.6087    1.4141 C.3     1  UNL1        0.1095
      5 H           9.6645    6.8485    1.1919 H       1  UNL1        0.0646
      6 C           7.9947    7.7537    2.2130 C.3     1  UNL1        0.1140
      7 H           8.0864    8.6836    1.6517 H       1  UNL1        0.0648
      8 C           6.5143    7.4413    2.4519 C.3     1  UNL1        0.1341
      9 H           6.0448    8.2764    2.9716 H       1  UNL1        0.0671
     10 C           5.8227    7.2240    1.1035 C.3     1  UNL1        0.1884
     11 H           5.8763    8.1403    0.5156 H       1  UNL1        0.0938
     12 O           6.4767    6.1667    0.3988 O.3     1  UNL1       -0.3431
     13 O           4.4537    6.8765    1.3206 O.3     1  UNL1       -0.3414
     14 C           3.6859    6.7608    0.1206 C.3     1  UNL1        0.0802
     15 H           4.0929    7.4231   -0.6420 H       1  UNL1        0.0641
     16 C           2.2256    7.1319    0.4069 C.3     1  UNL1       -0.0221
     17 C           1.4175    6.9614   -0.8749 C.3     1  UNL1       -0.0410
     18 C           1.4824    5.5425   -1.4104 C.3     1  UNL1       -0.0077
     19 C           0.2584    4.7398   -0.9768 C.3     1  UNL1       -0.0265
     20 H          -0.6373    5.1909   -1.4177 H       1  UNL1        0.0313
     21 C           0.1284    4.7716    0.5496 C.3     1  UNL1       -0.0485
     22 C          -1.1898    4.1133    0.9383 C.3     1  UNL1       -0.0442
     23 C          -1.3543    2.7169    0.4076 C.3     1  UNL1        0.0039
     24 C          -0.7700    1.5910    1.2531 C.3     1  UNL1       -0.0049
     25 H          -1.5989    1.0524    1.7479 H       1  UNL1        0.0356
     26 C          -0.0797    0.6180    0.2767 C.3     1  UNL1       -0.0429
     27 C          -0.5960    0.9933   -1.1281 C.3     1  UNL1       -0.0226
     28 C          -0.9001    2.5121   -1.0412 C.3     1  UNL1        0.0751
     29 C           0.3560    3.2849   -1.4250 C.3     1  UNL1       -0.0077
     30 H           0.4131    3.2714   -2.5300 H       1  UNL1        0.0332
     31 C           1.6214    2.6216   -0.8967 C.3     1  UNL1       -0.0436
     32 C           2.8527    3.3547   -1.4527 C.3     1  UNL1       -0.0308
     33 C           2.7352    4.8114   -1.0347 C.2     1  UNL1       -0.0649
     34 C           3.7191    5.3381   -0.3655 C.2     1  UNL1       -0.0558
     35 O          -1.9779    2.8542   -1.9474 O.3     1  UNL1       -0.3877
     36 C           0.1910    2.0608    2.3146 C.ar    1  UNL1       -0.0085
     37 C           1.5751    1.8982    2.1324 C.ar    1  UNL1       -0.0486
     38 C           2.4257    2.3350    3.1050 C.ar    1  UNL1        0.0233
     39 C           1.8915    2.9254    4.2647 C.ar    1  UNL1        0.3367
     40 O           2.6360    3.3176    5.1471 O.2     1  UNL1       -0.2452
     41 O           0.5614    3.0569    4.4007 O.2     1  UNL1       -0.4303
     42 C          -0.2766    2.6331    3.4439 C.ar    1  UNL1        0.0994
     43 C          -2.8916    2.4688    0.3976 C.3     1  UNL1       -0.0564
     44 C           1.4524    5.6584   -2.9396 C.3     1  UNL1       -0.0556
     45 O           6.3981    6.2579    3.2444 O.3     1  UNL1       -0.3841
     46 O           8.6641    7.8855    3.4687 O.3     1  UNL1       -0.3864
     47 O           8.5644    5.4031    2.1789 O.3     1  UNL1       -0.3866
     48 H           7.5474    8.5367   -0.1840 H       1  UNL1        0.0255
     49 H           9.0130    7.8913   -0.9610 H       1  UNL1        0.0255
     50 H           7.4129    7.5639   -1.6686 H       1  UNL1        0.0255
     51 H           2.1729    8.1709    0.7382 H       1  UNL1        0.0294
     52 H           1.8322    6.4847    1.1900 H       1  UNL1        0.0294
     53 H           1.8115    7.6386   -1.6358 H       1  UNL1        0.0275
     54 H           0.3760    7.2194   -0.6826 H       1  UNL1        0.0275
     55 H           0.1154    5.8140    0.8867 H       1  UNL1        0.0268
     56 H           0.9722    4.2640    1.0064 H       1  UNL1        0.0268
     57 H          -2.0058    4.7302    0.5241 H       1  UNL1        0.0272
     58 H          -1.3102    4.1340    2.0201 H       1  UNL1        0.0272
     59 H          -0.3668   -0.4085    0.5149 H       1  UNL1        0.0272
     60 H           1.0006    0.7206    0.3356 H       1  UNL1        0.0272
     61 H           0.1609    0.7889   -1.8854 H       1  UNL1        0.0293
     62 H          -1.5042    0.4308   -1.3607 H       1  UNL1        0.0293
     63 H           1.6663    1.5831   -1.2235 H       1  UNL1        0.0272
     64 H           1.6518    2.6683    0.1889 H       1  UNL1        0.0272
     65 H           2.8751    3.2696   -2.5361 H       1  UNL1        0.0310
     66 H           3.7565    2.9200   -1.0274 H       1  UNL1        0.0310
     67 H           4.5880    4.7339   -0.1514 H       1  UNL1        0.0597
     68 H          -1.7802    2.6792   -2.8777 H       1  UNL1        0.2102
     69 H           1.9595    1.4374    1.2344 H       1  UNL1        0.0623
     70 H           3.4938    2.2254    2.9884 H       1  UNL1        0.0689
     71 H          -1.3416    2.7511    3.5790 H       1  UNL1        0.1033
     72 H          -3.0936    1.4537    0.0558 H       1  UNL1        0.0236
     73 H          -3.2871    2.5984    1.4050 H       1  UNL1        0.0236
     74 H          -3.3701    3.1806   -0.2750 H       1  UNL1        0.0236
     75 H           0.5390    6.1672   -3.2475 H       1  UNL1        0.0238
     76 H           2.3176    6.2286   -3.2778 H       1  UNL1        0.0238
     77 H           1.4793    4.6617   -3.3801 H       1  UNL1        0.0238
     78 H           5.4857    5.9975    3.4309 H       1  UNL1        0.2101
     79 H           8.3159    8.5936    4.0276 H       1  UNL1        0.2100
     80 H           8.9422    4.6338    1.7310 H       1  UNL1        0.2100
@<TRIPOS>BOND
     1     1     2    1
     2     1    48    1
     3     1    49    1
     4     1    50    1
     5     2     3    1
     6     2    12    1
     7     2     4    1
     8     4     5    1
     9     4     6    1
    10     4    47    1
    11     6     7    1
    12     6     8    1
    13     6    46    1
    14     8     9    1
    15     8    10    1
    16     8    45    1
    17    10    11    1
    18    10    12    1
    19    10    13    1
    20    13    14    1
    21    14    15    1
    22    14    34    1
    23    14    16    1
    24    16    17    1
    25    16    51    1
    26    16    52    1
    27    17    18    1
    28    17    53    1
    29    17    54    1
    30    18    33    1
    31    18    19    1
    32    18    44    1
    33    19    20    1
    34    19    29    1
    35    19    21    1
    36    21    22    1
    37    21    55    1
    38    21    56    1
    39    22    23    1
    40    22    57    1
    41    22    58    1
    42    23    28    1
    43    23    24    1
    44    23    43    1
    45    24    25    1
    46    24    26    1
    47    24    36    1
    48    26    27    1
    49    26    59    1
    50    26    60    1
    51    27    28    1
    52    27    61    1
    53    27    62    1
    54    28    29    1
    55    28    35    1
    56    29    30    1
    57    29    31    1
    58    31    32    1
    59    31    63    1
    60    31    64    1
    61    32    33    1
    62    32    65    1
    63    32    66    1
    64    33    34    2
    65    34    67    1
    66    35    68    1
    67    36    42   ar
    68    36    37   ar
    69    37    38   ar
    70    37    69    1
    71    38    39   ar
    72    38    70    1
    73    39    40    2
    74    39    41   ar
    75    41    42   ar
    76    42    71    1
    77    43    72    1
    78    43    73    1
    79    43    74    1
    80    44    75    1
    81    44    76    1
    82    44    77    1
    83    45    78    1
    84    46    79    1
    85    47    80    1
