@<TRIPOS>MOLECULE
ZINC03830881
 54 55 0 0 0
SMALL
GASTEIGER

@<TRIPOS>ATOM
      1 C           4.6804   -0.4401    5.2306 C.3     1  UNL1       -0.0046
      2 C           3.7475   -0.7963    4.1019 C.ar    1  UNL1        0.1280
      3 N           3.5459    0.0785    3.1371 N.ar    1  UNL1       -0.2401
      4 C           2.7333   -0.1949    2.1262 C.ar    1  UNL1        0.0376
      5 C           2.0912   -1.4172    2.0895 C.ar    1  UNL1        0.0274
      6 C           2.3224   -2.3188    3.1302 C.ar    1  UNL1        0.1243
      7 N           3.1559   -1.9735    4.1074 N.ar    1  UNL1       -0.2177
      8 N           1.6978   -3.5553    3.1420 N.pl3   1  UNL1       -0.3428
      9 C           1.1596   -1.7666    0.9576 C.3     1  UNL1        0.0437
     10 N          -0.2252   -1.5346    1.3755 N.pl3   1  UNL1       -0.3056
     11 C          -0.9685   -2.5911    2.0666 C.3     1  UNL1        0.1105
     12 O          -1.0056   -2.3094    3.4671 O.3     1  UNL1       -0.3770
     13 C          -0.8389   -0.3018    1.1142 C.2     1  UNL1        0.0157
     14 C          -1.0634    0.0746   -0.1361 C.2     1  UNL1        0.0151
     15 C          -1.6163    1.4470   -0.4221 C.3     1  UNL1        0.0038
     16 C          -0.4648    2.4079   -0.7250 C.3     1  UNL1        0.0487
     17 O          -0.9892    3.7092   -0.9962 O.3     1  UNL1       -0.3947
     18 S          -0.7154   -1.0294   -1.4645 S.3     1  UNL1       -0.0598
     19 S          -2.5572   -1.4343   -2.2683 S.3     1  UNL1       -0.0858
     20 C          -2.8117   -0.1038   -3.4748 C.3     1  UNL1        0.0305
     21 C          -1.8228   -0.2676   -4.6308 C.3     1  UNL1        0.0685
     22 H          -1.9669   -1.2374   -5.1070 H       1  UNL1        0.0604
     23 C          -2.0309    0.8585   -5.6619 C.3     1  UNL1       -0.0237
     24 C          -0.6564    1.5674   -5.7321 C.3     1  UNL1       -0.0271
     25 C           0.2992    0.4783   -5.1817 C.3     1  UNL1        0.0481
     26 O          -0.4759   -0.1553   -4.1414 O.3     1  UNL1       -0.3757
     27 C          -1.2435    0.5953    2.2555 C.3     1  UNL1       -0.0258
     28 H           4.1173    0.0440    6.0284 H       1  UNL1        0.0308
     29 H           5.1488   -1.3464    5.6146 H       1  UNL1        0.0308
     30 H           5.4500    0.2397    4.8650 H       1  UNL1        0.0308
     31 H           2.5755    0.5292    1.3406 H       1  UNL1        0.0834
     32 H           1.1696   -3.8392    2.3796 H       1  UNL1        0.1437
     33 H           1.7886   -4.1372    3.9128 H       1  UNL1        0.1437
     34 H           1.2881   -2.8159    0.6920 H       1  UNL1        0.0515
     35 H           1.3877   -1.1426    0.0935 H       1  UNL1        0.0515
     36 H          -1.9858   -2.6337    1.6775 H       1  UNL1        0.0769
     37 H          -0.4760   -3.5494    1.9016 H       1  UNL1        0.0769
     38 H          -1.4161   -3.0060    3.9976 H       1  UNL1        0.2115
     39 H          -2.2842    1.3977   -1.2820 H       1  UNL1        0.0341
     40 H          -2.1687    1.8045    0.4470 H       1  UNL1        0.0341
     41 H           0.2031    2.4572    0.1350 H       1  UNL1        0.0560
     42 H           0.0876    2.0504   -1.5940 H       1  UNL1        0.0560
     43 H          -0.3137    4.3714   -1.1971 H       1  UNL1        0.2094
     44 H          -3.8307   -0.1516   -3.8589 H       1  UNL1        0.0410
     45 H          -2.6501    0.8600   -2.9922 H       1  UNL1        0.0410
     46 H          -2.2953    0.4418   -6.6337 H       1  UNL1        0.0291
     47 H          -2.8003    1.5510   -5.3205 H       1  UNL1        0.0291
     48 H          -0.4030    1.8235   -6.7608 H       1  UNL1        0.0288
     49 H          -0.6429    2.4535   -5.0975 H       1  UNL1        0.0288
     50 H           0.5534   -0.2392   -5.9620 H       1  UNL1        0.0560
     51 H           1.2010    0.9313   -4.7699 H       1  UNL1        0.0560
     52 H          -2.2631    0.3588    2.5598 H       1  UNL1        0.0290
     53 H          -0.5680    0.4402    3.0967 H       1  UNL1        0.0290
     54 H          -1.1921    1.6360    1.9354 H       1  UNL1        0.0290
@<TRIPOS>BOND
     1     1     2    1
     2     1    28    1
     3     1    29    1
     4     1    30    1
     5     2     7   ar
     6     2     3   ar
     7     3     4   ar
     8     4     5   ar
     9     4    31    1
    10     5     6   ar
    11     5     9    1
    12     6     7   ar
    13     6     8    1
    14     8    32    1
    15     8    33    1
    16     9    10    1
    17     9    34    1
    18     9    35    1
    19    10    11    1
    20    10    13    1
    21    11    12    1
    22    11    36    1
    23    11    37    1
    24    12    38    1
    25    13    14    2
    26    13    27    1
    27    14    15    1
    28    14    18    1
    29    15    16    1
    30    15    39    1
    31    15    40    1
    32    16    17    1
    33    16    41    1
    34    16    42    1
    35    17    43    1
    36    18    19    1
    37    19    20    1
    38    20    21    1
    39    20    44    1
    40    20    45    1
    41    21    22    1
    42    21    26    1
    43    21    23    1
    44    23    24    1
    45    23    46    1
    46    23    47    1
    47    24    25    1
    48    24    48    1
    49    24    49    1
    50    25    26    1
    51    25    50    1
    52    25    51    1
    53    27    52    1
    54    27    53    1
    55    27    54    1
