@<TRIPOS>MOLECULE
ZINC00601259
 56 58 0 0 0
SMALL
GASTEIGER

@<TRIPOS>ATOM
      1 C           4.3987    3.9083    5.5923 C.3     1  UNL1        0.0333
      2 C           4.1720    2.5164    6.1236 C.2     1  UNL1        0.3047
      3 O           4.8919    2.0749    6.9876 O.2     1  UNL1       -0.2511
      4 O           3.1703    1.7672    5.6368 O.3     1  UNL1       -0.4506
      5 C           3.0111    0.4363    6.1953 C.3     1  UNL1        0.1947
      6 H           3.3454    0.4386    7.2327 H       1  UNL1        0.0848
      7 C           1.5266    0.0359    6.1401 C.3     1  UNL1        0.0805
      8 H           0.9820    0.5194    6.9511 H       1  UNL1        0.0506
      9 S           1.4422   -1.7765    6.3302 S.3     1  UNL1       -0.1111
     10 C           2.6399   -2.1058    7.5837 C.ar    1  UNL1        0.0300
     11 C           2.2432   -2.4751    8.8587 C.ar    1  UNL1       -0.0465
     12 C           3.1994   -2.7343    9.8244 C.ar    1  UNL1       -0.0606
     13 C           4.5441   -2.6248    9.5206 C.ar    1  UNL1       -0.0599
     14 C           4.9458   -2.2548    8.2494 C.ar    1  UNL1       -0.0392
     15 C           3.9944   -1.9936    7.2774 C.ar    1  UNL1        0.0500
     16 N           4.3794   -1.6151    5.9821 N.am    1  UNL1       -0.2622
     17 C           3.8448   -0.5304    5.4078 C.2     1  UNL1        0.2623
     18 O           4.0379   -0.3258    4.2279 O.2     1  UNL1       -0.2711
     19 C           5.3717   -2.4106    5.2550 C.3     1  UNL1        0.0600
     20 C           6.7733   -1.8747    5.5539 C.3     1  UNL1       -0.0158
     21 C           9.0966   -2.0489    4.8947 C.3     1  UNL1       -0.0433
     22 C           7.8073   -4.0522    5.3270 C.3     1  UNL1       -0.0433
     23 C           0.9358    0.4401    4.8140 C.ar    1  UNL1       -0.0299
     24 C           0.0310    1.4837    4.7509 C.ar    1  UNL1       -0.0539
     25 C          -0.5121    1.8561    3.5365 C.ar    1  UNL1       -0.0197
     26 C          -0.1488    1.1821    2.3796 C.ar    1  UNL1        0.1201
     27 C           0.7549    0.1317    2.4464 C.ar    1  UNL1       -0.0197
     28 C           1.2991   -0.2335    3.6625 C.ar    1  UNL1       -0.0539
     29 O          -0.6816    1.5467    1.1837 O.3     1  UNL1       -0.4951
     30 C          -0.2619    0.8083    0.0344 C.3     1  UNL1        0.0788
     31 H           3.6571    4.1295    4.8247 H       1  UNL1        0.0342
     32 H           4.3051    4.6275    6.4060 H       1  UNL1        0.0342
     33 H           5.3979    3.9747    5.1619 H       1  UNL1        0.0342
     34 H           1.1934   -2.5599    9.0975 H       1  UNL1        0.0629
     35 H           2.8944   -3.0228   10.8194 H       1  UNL1        0.0618
     36 H           5.2846   -2.8292   10.2797 H       1  UNL1        0.0618
     37 H           5.9969   -2.1706    8.0158 H       1  UNL1        0.0636
     38 H           5.3056   -3.4515    5.5716 H       1  UNL1        0.0521
     39 H           5.1776   -2.3433    4.1845 H       1  UNL1        0.0521
     40 H           6.8394   -0.8337    5.2373 H       1  UNL1        0.0830
     41 H           6.9674   -1.9419    6.6243 H       1  UNL1        0.0830
     42 H           9.4068   -1.9706    5.9367 H       1  UNL1        0.0777
     43 H           9.8140   -2.6598    4.3469 H       1  UNL1        0.0777
     44 H           9.0545   -1.0535    4.4525 H       1  UNL1        0.0777
     45 H           6.8280   -4.5133    5.1991 H       1  UNL1        0.0777
     46 H           8.5521   -4.6207    4.7700 H       1  UNL1        0.0777
     47 H           8.0709   -4.0466    6.3847 H       1  UNL1        0.0777
     48 H          -0.2518    2.0078    5.6518 H       1  UNL1        0.0622
     49 H          -1.2191    2.6711    3.4878 H       1  UNL1        0.0654
     50 H           1.0359   -0.3975    1.5478 H       1  UNL1        0.0654
     51 H           2.0055   -1.0488    3.7145 H       1  UNL1        0.0622
     52 H          -0.5218   -0.2424    0.1628 H       1  UNL1        0.0660
     53 H           0.8174    0.9037   -0.0845 H       1  UNL1        0.0660
     54 H          -0.7611    1.2005   -0.8516 H       1  UNL1        0.0660
     55 N           7.7604   -2.6732    4.7972 N.4     1  UNL1        0.2320
     56 H           7.4781   -2.7044    3.8105 H       1  UNL1        0.2028
@<TRIPOS>UNITY_ATOM_ATTR
55 1
charge 1
@<TRIPOS>BOND
     1     1     2    1
     2     1    31    1
     3     1    32    1
     4     1    33    1
     5     2     3    2
     6     2     4    1
     7     4     5    1
     8     5     6    1
     9     5    17    1
    10     5     7    1
    11     7     8    1
    12     7     9    1
    13     7    23    1
    14     9    10    1
    15    10    15   ar
    16    10    11   ar
    17    11    12   ar
    18    11    34    1
    19    12    13   ar
    20    12    35    1
    21    13    14   ar
    22    13    36    1
    23    14    15   ar
    24    14    37    1
    25    15    16    1
    26    16    17   am
    27    16    19    1
    28    17    18    2
    29    19    20    1
    30    19    38    1
    31    19    39    1
    32    20    40    1
    33    20    41    1
    34    20    55    1
    35    21    42    1
    36    21    43    1
    37    21    44    1
    38    21    55    1
    39    22    45    1
    40    22    46    1
    41    22    47    1
    42    22    55    1
    43    23    28   ar
    44    23    24   ar
    45    24    25   ar
    46    24    48    1
    47    25    26   ar
    48    25    49    1
    49    26    27   ar
    50    26    29    1
    51    27    28   ar
    52    27    50    1
    53    28    51    1
    54    29    30    1
    55    30    52    1
    56    30    53    1
    57    30    54    1
    58    55    56    1
