@<TRIPOS>MOLECULE
ZINC08552617
 69 74 0 0 0
SMALL
GASTEIGER

@<TRIPOS>ATOM
      1 C          -1.7137    4.6140    3.3315 C.3     1  UNL1       -0.0030
      2 C          -0.6773    5.6476    2.9726 C.2     1  UNL1        0.1650
      3 O           0.4155    5.6100    3.4849 O.2     1  UNL1       -0.2945
      4 C          -1.0042    6.7259    1.9761 C.3     1  UNL1        0.1617
      5 C           0.3175    6.9806    1.1470 C.3     1  UNL1        0.0990
      6 H           0.1378    7.6901    0.3357 H       1  UNL1        0.0631
      7 C           1.1798    7.6295    2.2162 C.3     1  UNL1       -0.0196
      8 C           0.1667    8.6522    2.7866 C.3     1  UNL1       -0.0269
      9 H           0.1592    9.4341    2.0096 H       1  UNL1        0.0311
     10 C          -1.2297    8.0511    2.6597 C.3     1  UNL1        0.0097
     11 C          -2.0293    7.9781    3.9241 C.3     1  UNL1       -0.0439
     12 C          -1.6683    8.9128    5.0447 C.3     1  UNL1       -0.0486
     13 C          -0.2016    9.1877    5.2568 C.3     1  UNL1       -0.0288
     14 H          -0.1972   10.2096    5.7190 H       1  UNL1        0.0312
     15 C           0.5723    9.3844    3.9989 C.3     1  UNL1       -0.0336
     16 H           0.2802   10.4241    3.7257 H       1  UNL1        0.0307
     17 C           2.0725    9.5430    4.1487 C.3     1  UNL1       -0.0459
     18 C           2.6718    8.4623    5.0446 C.3     1  UNL1       -0.0305
     19 C           1.9191    8.4930    6.3631 C.2     1  UNL1       -0.0601
     20 C           2.6301    8.6726    7.4763 C.2     1  UNL1       -0.0194
     21 C           1.9201    8.7697    8.7572 C.2     1  UNL1        0.1561
     22 O           2.4423    8.4550    9.8067 O.2     1  UNL1       -0.2927
     23 C           0.4946    9.2787    8.6908 C.3     1  UNL1        0.0107
     24 C          -0.2674    8.4574    7.6591 C.3     1  UNL1       -0.0367
     25 C           0.4356    8.3285    6.3256 C.3     1  UNL1       -0.0072
     26 C           0.2156    6.8654    5.9225 C.3     1  UNL1       -0.0556
     27 C          -2.0163    8.9461    1.6747 C.3     1  UNL1       -0.0562
     28 O           0.4729    5.6735    0.6445 O.3     1  UNL1       -0.3383
     29 C          -0.8747    5.4125    0.1361 C.3     1  UNL1        0.1952
     30 O          -1.8057    6.1393    0.9880 O.3     1  UNL1       -0.3277
     31 C          -0.9914    5.9092   -1.3080 C.3     1  UNL1       -0.0059
     32 C          -1.1666    3.9348    0.1731 C.ar    1  UNL1        0.0108
     33 C          -0.1291    3.0235    0.1108 C.ar    1  UNL1       -0.0535
     34 C          -0.3969    1.6678    0.1451 C.ar    1  UNL1       -0.0613
     35 C          -1.7023    1.2233    0.2413 C.ar    1  UNL1       -0.0617
     36 C          -2.7403    2.1345    0.2978 C.ar    1  UNL1       -0.0613
     37 C          -2.4721    3.4903    0.2688 C.ar    1  UNL1       -0.0535
     38 H          -2.5800    4.8423    2.8872 H       1  UNL1        0.0307
     39 H          -1.3801    3.6326    2.9945 H       1  UNL1        0.0307
     40 H          -1.8526    4.5990    4.4125 H       1  UNL1        0.0307
     41 H           1.5345    6.9302    2.9616 H       1  UNL1        0.0294
     42 H           2.0303    8.1450    1.7541 H       1  UNL1        0.0294
     43 H          -2.1198    6.9807    4.3239 H       1  UNL1        0.0272
     44 H          -3.0702    8.2506    3.6377 H       1  UNL1        0.0272
     45 H          -2.1042    8.5210    5.9702 H       1  UNL1        0.0268
     46 H          -2.1704    9.8748    4.8534 H       1  UNL1        0.0268
     47 H           2.5429    9.5000    3.1666 H       1  UNL1        0.0271
     48 H           2.2812   10.5214    4.5895 H       1  UNL1        0.0271
     49 H           3.7274    8.6814    5.2233 H       1  UNL1        0.0310
     50 H           2.5797    7.4874    4.5749 H       1  UNL1        0.0310
     51 H           3.7062    8.6845    7.4343 H       1  UNL1        0.0652
     52 H           0.4969   10.2427    8.4248 H       1  UNL1        0.0345
     53 H           0.0224    9.1725    9.6709 H       1  UNL1        0.0345
     54 H          -1.2415    8.9242    7.4964 H       1  UNL1        0.0278
     55 H          -0.4348    7.4538    8.0562 H       1  UNL1        0.0278
     56 H           0.7864    6.6475    5.0199 H       1  UNL1        0.0238
     57 H           0.5483    6.2123    6.7293 H       1  UNL1        0.0238
     58 H          -0.8442    6.6965    5.7319 H       1  UNL1        0.0238
     59 H          -2.9789    8.4847    1.4540 H       1  UNL1        0.0236
     60 H          -2.1776    9.9261    2.1237 H       1  UNL1        0.0236
     61 H          -1.4472    9.0584    0.7519 H       1  UNL1        0.0236
     62 H          -2.0046    5.7365   -1.6709 H       1  UNL1        0.0285
     63 H          -0.7692    6.9757   -1.3445 H       1  UNL1        0.0285
     64 H          -0.2833    5.3689   -1.9364 H       1  UNL1        0.0285
     65 H           0.8908    3.3707    0.0356 H       1  UNL1        0.0622
     66 H           0.4138    0.9558    0.0964 H       1  UNL1        0.0618
     67 H          -1.9115    0.1641    0.2678 H       1  UNL1        0.0618
     68 H          -3.7604    1.7872    0.3685 H       1  UNL1        0.0618
     69 H          -3.2828    4.2023    0.3171 H       1  UNL1        0.0622
@<TRIPOS>BOND
     1     1     2    1
     2     1    38    1
     3     1    39    1
     4     1    40    1
     5     2     3    2
     6     2     4    1
     7     4    10    1
     8     4    30    1
     9     4     5    1
    10     5     6    1
    11     5     7    1
    12     5    28    1
    13     7     8    1
    14     7    41    1
    15     7    42    1
    16     8     9    1
    17     8    15    1
    18     8    10    1
    19    10    11    1
    20    10    27    1
    21    11    12    1
    22    11    43    1
    23    11    44    1
    24    12    13    1
    25    12    45    1
    26    12    46    1
    27    13    14    1
    28    13    25    1
    29    13    15    1
    30    15    16    1
    31    15    17    1
    32    17    18    1
    33    17    47    1
    34    17    48    1
    35    18    19    1
    36    18    49    1
    37    18    50    1
    38    19    25    1
    39    19    20    2
    40    20    21    1
    41    20    51    1
    42    21    22    2
    43    21    23    1
    44    23    24    1
    45    23    52    1
    46    23    53    1
    47    24    25    1
    48    24    54    1
    49    24    55    1
    50    25    26    1
    51    26    56    1
    52    26    57    1
    53    26    58    1
    54    27    59    1
    55    27    60    1
    56    27    61    1
    57    28    29    1
    58    29    30    1
    59    29    31    1
    60    29    32    1
    61    31    62    1
    62    31    63    1
    63    31    64    1
    64    32    37   ar
    65    32    33   ar
    66    33    34   ar
    67    33    65    1
    68    34    35   ar
    69    34    66    1
    70    35    36   ar
    71    35    67    1
    72    36    37   ar
    73    36    68    1
    74    37    69    1
