@<TRIPOS>MOLECULE
ZINC01629023
 46 47 0 0 0
SMALL
GASTEIGER

@<TRIPOS>ATOM
      1 C           0.4709    1.4238    2.1182 C.3     1  UNL1       -0.0245
      2 C          -0.0685   -0.0016    2.2530 C.3     1  UNL1       -0.0348
      3 C           0.0965   -0.4392   -0.1227 C.3     1  UNL1       -0.0348
      4 C           1.0243   -1.0529   -1.1731 C.3     1  UNL1       -0.0245
      5 C           0.2267   -2.2693    1.4572 C.3     1  UNL1       -0.0306
      6 C           1.0936   -2.7914    2.6048 C.3     1  UNL1        0.0055
      7 C           0.8705   -4.2962    2.7686 C.3     1  UNL1        0.0774
      8 C           1.6058   -4.7897    4.0192 C.3     1  UNL1       -0.0265
      9 C           0.9779   -4.1247    5.2488 C.3     1  UNL1        0.0256
     10 C          -0.5005   -4.4110    5.2647 C.2     1  UNL1        0.2193
     11 O          -1.0840   -4.4653    6.3258 O.2     1  UNL1       -0.2754
     12 N          -1.1841   -4.6076    4.1274 N.am    1  UNL1       -0.2557
     13 C          -0.6020   -4.5732    2.9193 C.2     1  UNL1        0.2299
     14 O          -1.2743   -4.7689    1.9298 O.2     1  UNL1       -0.2744
     15 C           1.3986   -5.0185    1.5560 C.ar    1  UNL1       -0.0322
     16 C           2.1275   -4.3301    0.6043 C.ar    1  UNL1       -0.0576
     17 C           2.6164   -4.9938   -0.5053 C.ar    1  UNL1       -0.0615
     18 C           2.3671   -6.3436   -0.6688 C.ar    1  UNL1       -0.0617
     19 C           1.6334   -7.0308    0.2800 C.ar    1  UNL1       -0.0615
     20 C           1.1493   -6.3683    1.3925 C.ar    1  UNL1       -0.0576
     21 H           0.2181    1.8163    1.1333 H       1  UNL1        0.0281
     22 H           0.0246    2.0553    2.8865 H       1  UNL1        0.0281
     23 H           1.5541    1.4153    2.2389 H       1  UNL1        0.0281
     24 H           0.1843   -0.3942    3.2380 H       1  UNL1        0.0812
     25 H          -1.1518    0.0068    2.1323 H       1  UNL1        0.0812
     26 H          -0.9238   -0.7820   -0.2945 H       1  UNL1        0.0812
     27 H           0.1320    0.6477   -0.1971 H       1  UNL1        0.0812
     28 H           2.0595   -0.8183   -0.9250 H       1  UNL1        0.0281
     29 H           0.8905   -2.1345   -1.1886 H       1  UNL1        0.0281
     30 H           0.7840   -0.6430   -2.1541 H       1  UNL1        0.0281
     31 H          -0.8259   -2.3741    1.7203 H       1  UNL1        0.0815
     32 H           0.4345   -2.8437    0.5545 H       1  UNL1        0.0815
     33 H           2.1437   -2.6019    2.3822 H       1  UNL1        0.0330
     34 H           0.8200   -2.2809    3.5282 H       1  UNL1        0.0330
     35 H           1.5074   -5.8724    4.0984 H       1  UNL1        0.0283
     36 H           2.6597   -4.5191    3.9549 H       1  UNL1        0.0283
     37 H           1.4361   -4.5248    6.1532 H       1  UNL1        0.0359
     38 H           1.1408   -3.0479    5.2035 H       1  UNL1        0.0359
     39 H          -2.1369   -4.7814    4.1806 H       1  UNL1        0.1575
     40 H           2.3185   -3.2745    0.7298 H       1  UNL1        0.0621
     41 H           3.1899   -4.4570   -1.2465 H       1  UNL1        0.0618
     42 H           2.7459   -6.8614   -1.5376 H       1  UNL1        0.0618
     43 H           1.4386   -8.0854    0.1523 H       1  UNL1        0.0618
     44 H           0.5761   -6.9053    2.1338 H       1  UNL1        0.0621
     45 N           0.5614   -0.8495    1.2190 N.4     1  UNL1        0.2349
     46 H           1.5805   -0.7342    1.2685 H       1  UNL1        0.2033
@<TRIPOS>UNITY_ATOM_ATTR
45 1
charge 1
@<TRIPOS>BOND
     1     1     2    1
     2     1    21    1
     3     1    22    1
     4     1    23    1
     5     2    24    1
     6     2    25    1
     7     2    45    1
     8     3     4    1
     9     3    26    1
    10     3    27    1
    11     3    45    1
    12     4    28    1
    13     4    29    1
    14     4    30    1
    15     5     6    1
    16     5    31    1
    17     5    32    1
    18     5    45    1
    19     6     7    1
    20     6    33    1
    21     6    34    1
    22     7    13    1
    23     7     8    1
    24     7    15    1
    25     8     9    1
    26     8    35    1
    27     8    36    1
    28     9    10    1
    29     9    37    1
    30     9    38    1
    31    10    11    2
    32    10    12   am
    33    12    13   am
    34    12    39    1
    35    13    14    2
    36    15    20   ar
    37    15    16   ar
    38    16    17   ar
    39    16    40    1
    40    17    18   ar
    41    17    41    1
    42    18    19   ar
    43    18    42    1
    44    19    20   ar
    45    19    43    1
    46    20    44    1
    47    45    46    1
