@<TRIPOS>MOLECULE
ZINC00537893
 62 65 0 0 0
SMALL
GASTEIGER

@<TRIPOS>ATOM
      1 C          -0.5122    1.1878   -0.3784 C.3     1  UNL1       -0.0560
      2 C          -1.1719    1.7938    0.8620 C.3     1  UNL1        0.0184
      3 H          -0.4482    1.8322    1.6762 H       1  UNL1        0.0366
      4 C          -1.6553    3.2097    0.5422 C.3     1  UNL1       -0.0275
      5 C           0.3423    4.2512    1.4322 C.3     1  UNL1       -0.0078
      6 C           1.5628    5.0973    1.0605 C.3     1  UNL1        0.0878
      7 O           1.1239    6.3414    0.5084 O.3     1  UNL1       -0.3693
      8 C           0.3019    6.1978   -0.6531 C.3     1  UNL1        0.0878
      9 C          -0.9314    5.3629   -0.2987 C.3     1  UNL1       -0.0078
     10 C          -2.3638    0.9299    1.2792 C.3     1  UNL1        0.1041
     11 C          -2.8917    1.4098    2.6066 C.ar    1  UNL1       -0.0277
     12 C          -2.2113    2.3871    3.3086 C.ar    1  UNL1       -0.0572
     13 C          -2.6982    2.8307    4.5240 C.ar    1  UNL1       -0.0615
     14 C          -3.8598    2.2896    5.0423 C.ar    1  UNL1       -0.0617
     15 C          -4.5374    1.3085    4.3427 C.ar    1  UNL1       -0.0615
     16 C          -4.0534    0.8687    3.1249 C.ar    1  UNL1       -0.0572
     17 C          -3.4491    1.0355    0.2391 C.ar    1  UNL1       -0.0277
     18 C          -4.5916    1.7672    0.5041 C.ar    1  UNL1       -0.0572
     19 C          -5.5851    1.8680   -0.4519 C.ar    1  UNL1       -0.0615
     20 C          -5.4407    1.2283   -1.6688 C.ar    1  UNL1       -0.0617
     21 C          -4.3006    0.4922   -1.9318 C.ar    1  UNL1       -0.0615
     22 C          -3.3048    0.3958   -0.9778 C.ar    1  UNL1       -0.0572
     23 C          -1.9244   -0.5063    1.4028 C.2     1  UNL1        0.2309
     24 O          -2.3608   -1.3418    0.6397 O.2     1  UNL1       -0.2743
     25 N          -1.0465   -0.8623    2.3615 N.am    1  UNL1       -0.3005
     26 C          -0.5221    0.0205    3.4137 C.3     1  UNL1        0.0147
     27 C           0.4644   -0.8112    4.2602 C.3     1  UNL1       -0.0357
     28 C           0.8750   -1.9512    3.2912 C.3     1  UNL1       -0.0357
     29 C          -0.4481   -2.1997    2.5248 C.3     1  UNL1        0.0147
     30 H          -0.1825    0.1731   -0.1555 H       1  UNL1        0.0235
     31 H           0.3469    1.7940   -0.6659 H       1  UNL1        0.0235
     32 H          -1.2309    1.1646   -1.1975 H       1  UNL1        0.0235
     33 H          -2.3201    3.1803   -0.3211 H       1  UNL1        0.0817
     34 H          -2.1924    3.6129    1.4007 H       1  UNL1        0.0817
     35 H          -0.2307    4.7598    2.2075 H       1  UNL1        0.0837
     36 H           0.6714    3.2794    1.8003 H       1  UNL1        0.0837
     37 H           2.1645    4.5644    0.3242 H       1  UNL1        0.0613
     38 H           2.1611    5.2855    1.9520 H       1  UNL1        0.0613
     39 H           0.8669    5.6969   -1.4392 H       1  UNL1        0.0613
     40 H          -0.0124    7.1817   -1.0012 H       1  UNL1        0.0613
     41 H          -1.5320    5.2026   -1.1941 H       1  UNL1        0.0837
     42 H          -1.5254    5.8889    0.4486 H       1  UNL1        0.0837
     43 H          -1.3013    2.8067    2.9058 H       1  UNL1        0.0621
     44 H          -2.1686    3.5969    5.0707 H       1  UNL1        0.0618
     45 H          -4.2378    2.6330    5.9939 H       1  UNL1        0.0618
     46 H          -5.4448    0.8855    4.7478 H       1  UNL1        0.0618
     47 H          -4.5826    0.1020    2.5785 H       1  UNL1        0.0621
     48 H          -4.7063    2.2633    1.4565 H       1  UNL1        0.0621
     49 H          -6.4760    2.4428   -0.2462 H       1  UNL1        0.0618
     50 H          -6.2189    1.3034   -2.4139 H       1  UNL1        0.0618
     51 H          -4.1880   -0.0078   -2.8824 H       1  UNL1        0.0618
     52 H          -2.4142   -0.1796   -1.1832 H       1  UNL1        0.0621
     53 H          -0.0043    0.8673    2.9632 H       1  UNL1        0.0464
     54 H          -1.3394    0.3746    4.0419 H       1  UNL1        0.0464
     55 H          -0.0269   -1.2155    5.1452 H       1  UNL1        0.0281
     56 H           1.3307   -0.2112    4.5390 H       1  UNL1        0.0281
     57 H           1.1806   -2.8409    3.8418 H       1  UNL1        0.0281
     58 H           1.6633   -1.6231    2.6136 H       1  UNL1        0.0281
     59 H          -1.1086   -2.8423    3.1068 H       1  UNL1        0.0464
     60 H          -0.2446   -2.6457    1.5513 H       1  UNL1        0.0464
     61 N          -0.4838    4.0541    0.2228 N.4     1  UNL1        0.2387
     62 H           0.0808    3.5839   -0.4945 H       1  UNL1        0.2035
@<TRIPOS>UNITY_ATOM_ATTR
61 1
charge 1
@<TRIPOS>BOND
     1     1     2    1
     2     1    30    1
     3     1    31    1
     4     1    32    1
     5     2     3    1
     6     2     4    1
     7     2    10    1
     8     4    33    1
     9     4    34    1
    10     4    61    1
    11     5     6    1
    12     5    35    1
    13     5    36    1
    14     5    61    1
    15     6     7    1
    16     6    37    1
    17     6    38    1
    18     7     8    1
    19     8     9    1
    20     8    39    1
    21     8    40    1
    22     9    41    1
    23     9    42    1
    24     9    61    1
    25    10    11    1
    26    10    17    1
    27    10    23    1
    28    11    16   ar
    29    11    12   ar
    30    12    13   ar
    31    12    43    1
    32    13    14   ar
    33    13    44    1
    34    14    15   ar
    35    14    45    1
    36    15    16   ar
    37    15    46    1
    38    16    47    1
    39    17    22   ar
    40    17    18   ar
    41    18    19   ar
    42    18    48    1
    43    19    20   ar
    44    19    49    1
    45    20    21   ar
    46    20    50    1
    47    21    22   ar
    48    21    51    1
    49    22    52    1
    50    23    24    2
    51    23    25   am
    52    25    29    1
    53    25    26    1
    54    26    27    1
    55    26    53    1
    56    26    54    1
    57    27    28    1
    58    27    55    1
    59    27    56    1
    60    28    29    1
    61    28    57    1
    62    28    58    1
    63    29    59    1
    64    29    60    1
    65    61    62    1
