@<TRIPOS>MOLECULE
ZINC01640015
 36 35 0 0 0
SMALL
GASTEIGER

@<TRIPOS>ATOM
      1 C           2.3934    1.4015    3.2224 C.3     1  UNL1       -0.0650
      2 C           1.3781    1.6563    2.1066 C.3     1  UNL1       -0.0526
      3 C           0.0169    1.0906    2.5166 C.3     1  UNL1       -0.0325
      4 H           0.1281    0.0428    2.7957 H       1  UNL1        0.0305
      5 C          -0.5258    1.8812    3.7088 C.3     1  UNL1       -0.0617
      6 C          -0.9575    1.2050    1.3426 C.3     1  UNL1        0.0389
      7 C          -0.3495    0.5363    0.1081 C.3     1  UNL1       -0.0531
      8 C          -1.2244    2.6816    1.0433 C.3     1  UNL1        0.1027
      9 O          -0.0036    3.3073    0.5675 O.3     1  UNL1       -0.4499
     10 C          -0.0682    4.6159    0.2573 C.2     1  UNL1        0.3977
     11 O          -1.1161    5.2185    0.3809 O.2     1  UNL1       -0.2267
     12 N           1.0294    5.2573   -0.1902 N.am    1  UNL1       -0.2950
     13 C          -2.2731    0.5117    1.7023 C.3     1  UNL1        0.1027
     14 O          -2.0049   -0.8586    2.1004 O.3     1  UNL1       -0.4499
     15 C          -3.0645   -1.6118    2.4509 C.2     1  UNL1        0.3977
     16 O          -4.1827   -1.1370    2.4248 O.2     1  UNL1       -0.2267
     17 N          -2.8848   -2.8924    2.8307 N.am    1  UNL1       -0.2950
     18 H           2.4826    0.3288    3.3944 H       1  UNL1        0.0230
     19 H           3.3631    1.8045    2.9303 H       1  UNL1        0.0230
     20 H           2.0578    1.8895    4.1374 H       1  UNL1        0.0230
     21 H           1.7137    1.1683    1.1915 H       1  UNL1        0.0265
     22 H           1.2889    2.7290    1.9346 H       1  UNL1        0.0265
     23 H           0.0987    1.6954    4.5826 H       1  UNL1        0.0233
     24 H          -0.5150    2.9456    3.4741 H       1  UNL1        0.0233
     25 H          -1.5478    1.5658    3.9189 H       1  UNL1        0.0233
     26 H          -0.1594   -0.5156    0.3212 H       1  UNL1        0.0237
     27 H           0.5877    1.0302   -0.1482 H       1  UNL1        0.0237
     28 H          -1.0437    0.6178   -0.7283 H       1  UNL1        0.0237
     29 H          -1.9966    2.7635    0.2785 H       1  UNL1        0.0705
     30 H          -1.5587    3.1819    1.9522 H       1  UNL1        0.0705
     31 H           1.8659    4.7762   -0.2889 H       1  UNL1        0.1482
     32 H           0.9829    6.2001   -0.4137 H       1  UNL1        0.1482
     33 H          -2.7502    1.0426    2.5261 H       1  UNL1        0.0705
     34 H          -2.9346    0.5156    0.8360 H       1  UNL1        0.0705
     35 H          -1.9922   -3.2715    2.8515 H       1  UNL1        0.1482
     36 H          -3.6482   -3.4351    3.0832 H       1  UNL1        0.1482
@<TRIPOS>BOND
     1     1     2    1
     2     1    18    1
     3     1    19    1
     4     1    20    1
     5     2     3    1
     6     2    21    1
     7     2    22    1
     8     3     4    1
     9     3     5    1
    10     3     6    1
    11     5    23    1
    12     5    24    1
    13     5    25    1
    14     6     7    1
    15     6     8    1
    16     6    13    1
    17     7    26    1
    18     7    27    1
    19     7    28    1
    20     8     9    1
    21     8    29    1
    22     8    30    1
    23     9    10    1
    24    10    11    2
    25    10    12   am
    26    12    31    1
    27    12    32    1
    28    13    14    1
    29    13    33    1
    30    13    34    1
    31    14    15    1
    32    15    16    2
    33    15    17   am
    34    17    35    1
    35    17    36    1
