@<TRIPOS>MOLECULE
ZINC03831159
 54 57 0 0 0
SMALL
GASTEIGER

@<TRIPOS>ATOM
      1 C           1.0270    2.1603    0.3315 C.3     1  UNL1        0.0346
      2 N           0.7735    0.7279    0.1575 N.ar    1  UNL1       -0.2233
      3 C           1.6908   -0.2626    0.0531 C.ar    1  UNL1        0.2094
      4 N           1.0281   -1.3897   -0.0913 N.ar    1  UNL1       -0.1015
      5 N          -0.2374   -1.1714   -0.0842 N.ar    1  UNL1       -0.0222
      6 N          -0.4742    0.0872    0.0624 N.ar    1  UNL1       -0.0435
      7 S           3.4423   -0.0766    0.1004 S.3     1  UNL1       -0.0801
      8 C           3.9472   -1.8034   -0.0984 C.3     1  UNL1        0.0265
      9 C           5.4516   -1.8914   -0.0873 C.2     1  UNL1       -0.0107
     10 C           6.0782   -2.0247    1.0980 C.2     1  UNL1        0.0636
     11 N           7.4815   -2.1268    0.9768 N.am    1  UNL1       -0.2347
     12 C           8.2525   -1.6870   -0.2286 C.3     1  UNL1        0.1868
     13 H           8.4398   -0.6165   -0.3118 H       1  UNL1        0.0866
     14 C           9.4023   -2.5078    0.3451 C.3     1  UNL1        0.2580
     15 C           8.5513   -2.6829    1.5924 C.2     1  UNL1        0.2772
     16 O           8.7519   -3.1319    2.7012 O.2     1  UNL1       -0.2700
     17 N          10.6229   -1.7298    0.5717 N.am    1  UNL1       -0.2759
     18 C          10.6043   -0.6765    1.4123 C.2     1  UNL1        0.2285
     19 O           9.5771   -0.3727    1.9812 O.2     1  UNL1       -0.2747
     20 C          11.8598    0.1237    1.6455 C.3     1  UNL1        0.0998
     21 H          12.2017    0.5467    0.7009 H       1  UNL1        0.0504
     22 C          11.5723    1.2370    2.6196 C.ar    1  UNL1       -0.0299
     23 C          11.1174    0.9411    3.8913 C.ar    1  UNL1       -0.0540
     24 C          10.8585    1.9596    4.7879 C.ar    1  UNL1       -0.0199
     25 C          11.0449    3.2808    4.4079 C.ar    1  UNL1        0.1169
     26 C          11.4960    3.5753    3.1294 C.ar    1  UNL1       -0.0199
     27 C          11.7584    2.5530    2.2382 C.ar    1  UNL1       -0.0540
     28 O          10.7856    4.2848    5.2863 O.3     1  UNL1       -0.5068
     29 C          12.9301   -0.7742    2.2105 C.2     1  UNL1        0.0579
     30 O          12.6973   -1.9439    2.4040 O.co2   1  UNL1       -0.5487
     31 O           9.6428   -3.7273   -0.3599 O.3     1  UNL1       -0.3481
     32 C          10.7190   -4.5031    0.1711 C.3     1  UNL1        0.0396
     33 O           7.5407   -2.2520   -1.3396 O.3     1  UNL1       -0.3487
     34 C           6.1801   -1.8204   -1.3936 C.3     1  UNL1        0.0741
     35 C           5.3702   -2.0646    2.3902 C.2     1  UNL1        0.0861
     36 O           4.1724   -1.8644    2.4332 O.co2   1  UNL1       -0.5433
     37 H           1.0748    2.3942    1.3950 H       1  UNL1        0.0474
     38 H           1.9739    2.4217   -0.1409 H       1  UNL1        0.0474
     39 H           0.2210    2.7306   -0.1302 H       1  UNL1        0.0474
     40 H           3.5425   -2.3969    0.7214 H       1  UNL1        0.0427
     41 H           3.5678   -2.1861   -1.0459 H       1  UNL1        0.0427
     42 H          11.4444   -1.9728    0.1168 H       1  UNL1        0.1520
     43 H          10.9683   -0.0874    4.1852 H       1  UNL1        0.0622
     44 H          10.5070    1.7278    5.7825 H       1  UNL1        0.0654
     45 H          11.6422    4.6030    2.8313 H       1  UNL1        0.0654
     46 H          12.1096    2.7817    1.2428 H       1  UNL1        0.0622
     47 H           9.8756    4.6104    5.2540 H       1  UNL1        0.2921
     48 H          10.8373   -5.4120   -0.4189 H       1  UNL1        0.0525
     49 H          11.6401   -3.9217    0.1314 H       1  UNL1        0.0525
     50 H          10.5005   -4.7674    1.2057 H       1  UNL1        0.0525
     51 H           5.6503   -2.4387   -2.1182 H       1  UNL1        0.0608
     52 H           6.1589   -0.7888   -1.7449 H       1  UNL1        0.0608
     53 O          14.1421   -0.2745    2.4988 O.co2   1  UNL1       -0.5487
     54 O           6.0512   -2.3232    3.5241 O.co2   1  UNL1       -0.5433
@<TRIPOS>UNITY_ATOM_ATTR
53 1
charge -1
54 1
charge -1
@<TRIPOS>BOND
     1     1     2    1
     2     1    37    1
     3     1    38    1
     4     1    39    1
     5     2     6   ar
     6     2     3   ar
     7     3     4   ar
     8     3     7    1
     9     4     5   ar
    10     5     6   ar
    11     7     8    1
    12     8     9    1
    13     8    40    1
    14     8    41    1
    15     9    34    1
    16     9    10    2
    17    10    11    1
    18    10    35    1
    19    11    15   am
    20    11    12    1
    21    12    13    1
    22    12    14    1
    23    12    33    1
    24    14    15    1
    25    14    17    1
    26    14    31    1
    27    15    16    2
    28    17    18   am
    29    17    42    1
    30    18    19    2
    31    18    20    1
    32    20    21    1
    33    20    22    1
    34    20    29    1
    35    22    27   ar
    36    22    23   ar
    37    23    24   ar
    38    23    43    1
    39    24    25   ar
    40    24    44    1
    41    25    26   ar
    42    25    28    1
    43    26    27   ar
    44    26    45    1
    45    27    46    1
    46    28    47    1
    47    29    30   ar
    48    29    53   ar
    49    31    32    1
    50    32    48    1
    51    32    49    1
    52    32    50    1
    53    33    34    1
    54    34    51    1
    55    34    52    1
    56    35    36   ar
    57    35    54   ar
