@<TRIPOS>MOLECULE
ZINC00001093
 25 24 0 0 0
SMALL
GASTEIGER

@<TRIPOS>ATOM
      1 C           2.6503    1.3117   -2.4769 C.3     1  UNL1       -0.0636
      2 C           2.6532    0.2476   -1.3775 C.3     1  UNL1       -0.0321
      3 C           2.4620    0.9199   -0.0165 C.3     1  UNL1        0.1018
      4 C           3.6029    1.9094    0.2284 C.3     1  UNL1       -0.0321
      5 C           4.9440    1.1863    0.0882 C.3     1  UNL1       -0.0636
      6 C           1.1468    1.6555   -0.0000 C.2     1  UNL1        0.2370
      7 O           1.1304    2.8677    0.0067 O.2     1  UNL1       -0.2738
      8 N          -0.0111    0.9658    0.0074 N.am    1  UNL1       -0.2392
      9 C          -1.1873    1.6238    0.0165 C.2     1  UNL1        0.3033
     10 O          -1.2038    2.8390    0.0232 O.2     1  UNL1       -0.2527
     11 N          -2.3452    0.9341    0.0182 N.am    1  UNL1       -0.3130
     12 BR          2.4658   -0.4475    1.3961 Br      1  UNL1       -0.0745
     13 H           2.7865    0.8328   -3.4465 H       1  UNL1        0.0230
     14 H           1.6990    1.8438   -2.4649 H       1  UNL1        0.0230
     15 H           3.4631    2.0167   -2.3024 H       1  UNL1        0.0230
     16 H           3.6045   -0.2845   -1.3895 H       1  UNL1        0.0281
     17 H           1.8404   -0.4573   -1.5520 H       1  UNL1        0.0281
     18 H           3.5471    2.7163   -0.5022 H       1  UNL1        0.0281
     19 H           3.5162    2.3224    1.2334 H       1  UNL1        0.0281
     20 H           5.7568    1.8912    0.2627 H       1  UNL1        0.0230
     21 H           4.9998    0.3793    0.8188 H       1  UNL1        0.0230
     22 H           5.0307    0.7732   -0.9167 H       1  UNL1        0.0230
     23 H           0.0021   -0.0041    0.0020 H       1  UNL1        0.1591
     24 H          -2.3321   -0.0358    0.0129 H       1  UNL1        0.1465
     25 H          -3.1918    1.4076    0.0248 H       1  UNL1        0.1465
@<TRIPOS>BOND
     1     1     2    1
     2     1    13    1
     3     1    14    1
     4     1    15    1
     5     2     3    1
     6     2    16    1
     7     2    17    1
     8     3     4    1
     9     3     6    1
    10     3    12    1
    11     4     5    1
    12     4    18    1
    13     4    19    1
    14     5    20    1
    15     5    21    1
    16     5    22    1
    17     6     7    2
    18     6     8   am
    19     8     9   am
    20     8    23    1
    21     9    10    2
    22     9    11   am
    23    11    24    1
    24    11    25    1
