@<TRIPOS>MOLECULE
ZINC03830804
 50 53 0 0 0
SMALL
GASTEIGER

@<TRIPOS>ATOM
      1 C          -2.5446    3.4466    2.9045 C.3     1  UNL1       -0.0558
      2 C          -2.1957    2.0772    3.4950 C.3     1  UNL1        0.0111
      3 C          -0.7064    1.9689    3.7172 C.3     1  UNL1       -0.0435
      4 C          -0.0560    1.1792    2.5651 C.3     1  UNL1       -0.0488
      5 C          -0.7443    1.5631    1.2647 C.3     1  UNL1       -0.0314
      6 H          -0.8256    2.6467    1.2005 H       1  UNL1        0.0309
      7 C          -2.1466    0.9303    1.2383 C.3     1  UNL1       -0.0339
      8 H          -2.0028   -0.1302    0.9437 H       1  UNL1        0.0307
      9 C          -2.7256    0.9276    2.6148 C.3     1  UNL1       -0.0289
     10 H          -2.4615   -0.0334    3.1024 H       1  UNL1        0.0310
     11 C          -4.2475    1.1028    2.7316 C.3     1  UNL1       -0.0458
     12 C          -4.4514    1.5143    4.2145 C.3     1  UNL1       -0.0118
     13 C          -3.0545    1.8990    4.7623 C.3     1  UNL1        0.1317
     14 C          -3.1227    3.1623    5.5073 C.1     1  UNL1       -0.0704
     15 C          -3.1772    4.1725    6.1030 C.1     1  UNL1       -0.1163
     16 O          -2.5325    0.8522    5.5753 O.3     1  UNL1       -0.3760
     17 C          -2.9637    1.5749    0.1325 C.3     1  UNL1       -0.0460
     18 C          -2.3058    1.2031   -1.2098 C.3     1  UNL1       -0.0311
     19 C          -0.8320    1.5720   -1.1628 C.2     1  UNL1       -0.0677
     20 C          -0.3517    2.3025   -2.1253 C.2     1  UNL1       -0.0564
     21 C           1.0806    2.7503   -2.1790 C.3     1  UNL1        0.0736
     22 H           1.1751    3.7269   -1.7053 H       1  UNL1        0.0638
     23 C           1.9437    1.7302   -1.4296 C.3     1  UNL1       -0.0227
     24 C           1.4111    1.6058   -0.0028 C.3     1  UNL1       -0.0436
     25 C          -0.0127    1.0839    0.0080 C.3     1  UNL1       -0.0166
     26 H           0.0021   -0.0041    0.0020 H       1  UNL1        0.0348
     27 O           1.5066    2.8329   -3.5398 O.3     1  UNL1       -0.3878
     28 H          -2.0416    3.5674    1.9451 H       1  UNL1        0.0236
     29 H          -3.6229    3.5163    2.7608 H       1  UNL1        0.0236
     30 H          -2.2177    4.2307    3.5874 H       1  UNL1        0.0236
     31 H          -0.5007    1.4601    4.6626 H       1  UNL1        0.0272
     32 H          -0.2663    2.9707    3.7609 H       1  UNL1        0.0272
     33 H          -0.1730    0.1082    2.7417 H       1  UNL1        0.0268
     34 H           1.0068    1.4202    2.5091 H       1  UNL1        0.0268
     35 H          -4.7540    0.1550    2.5317 H       1  UNL1        0.0269
     36 H          -4.6149    1.8725    2.0587 H       1  UNL1        0.0269
     37 H          -4.8555    0.6763    4.7815 H       1  UNL1        0.0303
     38 H          -5.1251    2.3683    4.2762 H       1  UNL1        0.0303
     39 H          -3.2260    5.0760    6.6358 H       1  UNL1        0.1229
     40 H          -3.0349    0.6967    6.3868 H       1  UNL1        0.2114
     41 H          -2.9726    2.6564    0.2409 H       1  UNL1        0.0271
     42 H          -3.9832    1.1894    0.1493 H       1  UNL1        0.0271
     43 H          -2.7953    1.7462   -2.0151 H       1  UNL1        0.0310
     44 H          -2.4061    0.1306   -1.3729 H       1  UNL1        0.0310
     45 H          -1.0127    2.6018   -2.9240 H       1  UNL1        0.0597
     46 H           2.9785    2.0726   -1.4064 H       1  UNL1        0.0293
     47 H           1.8877    0.7635   -1.9297 H       1  UNL1        0.0293
     48 H           1.4397    2.5846    0.4763 H       1  UNL1        0.0272
     49 H           2.0484    0.9186    0.5558 H       1  UNL1        0.0272
     50 H           1.0013    3.4620   -4.0727 H       1  UNL1        0.2102
@<TRIPOS>BOND
     1     1     2    1
     2     1    28    1
     3     1    29    1
     4     1    30    1
     5     2     9    1
     6     2    13    1
     7     2     3    1
     8     3     4    1
     9     3    31    1
    10     3    32    1
    11     4     5    1
    12     4    33    1
    13     4    34    1
    14     5     6    1
    15     5    25    1
    16     5     7    1
    17     7     8    1
    18     7     9    1
    19     7    17    1
    20     9    10    1
    21     9    11    1
    22    11    12    1
    23    11    35    1
    24    11    36    1
    25    12    13    1
    26    12    37    1
    27    12    38    1
    28    13    14    1
    29    13    16    1
    30    14    15    3
    31    15    39    1
    32    16    40    1
    33    17    18    1
    34    17    41    1
    35    17    42    1
    36    18    19    1
    37    18    43    1
    38    18    44    1
    39    19    25    1
    40    19    20    2
    41    20    21    1
    42    20    45    1
    43    21    22    1
    44    21    23    1
    45    21    27    1
    46    23    24    1
    47    23    46    1
    48    23    47    1
    49    24    25    1
    50    24    48    1
    51    24    49    1
    52    25    26    1
    53    27    50    1
