@<TRIPOS>MOLECULE
ZINC00896648
 30 31 0 0 0
SMALL
GASTEIGER

@<TRIPOS>ATOM
      1 C           1.1399    1.7879    2.4983 C.3     1  UNL1       -0.0626
      2 C           2.0129    1.6405    1.2505 C.3     1  UNL1       -0.0216
      3 C           1.1581    1.8620    0.0010 C.3     1  UNL1        0.1376
      4 C           0.5446    3.2481    0.0134 C.2     1  UNL1        0.2508
      5 O           1.1317    4.3087    0.0126 O.2     1  UNL1       -0.2724
      6 N          -0.7893    3.0560    0.0247 N.am    1  UNL1       -0.2271
      7 C          -1.1006    1.7549    0.0161 C.2     1  UNL1        0.3094
      8 O          -2.2404    1.3329    0.0190 O.2     1  UNL1       -0.2522
      9 N          -0.0111    0.9658    0.0074 N.am    1  UNL1       -0.2811
     10 C          -1.7765    4.1384    0.0382 C.3     1  UNL1        0.0124
     11 C           1.9794    1.6532   -1.2452 C.ar    1  UNL1       -0.0153
     12 C           3.3417    1.8865   -1.2222 C.ar    1  UNL1       -0.0561
     13 C           4.0957    1.6908   -2.3642 C.ar    1  UNL1       -0.0614
     14 C           3.4859    1.2710   -3.5316 C.ar    1  UNL1       -0.0617
     15 C           2.1228    1.0424   -3.5558 C.ar    1  UNL1       -0.0614
     16 C           1.3695    1.2339   -2.4127 C.ar    1  UNL1       -0.0561
     17 H           1.7489    1.6301    3.3885 H       1  UNL1        0.0231
     18 H           0.7102    2.7893    2.5249 H       1  UNL1        0.0231
     19 H           0.3388    1.0494    2.4706 H       1  UNL1        0.0231
     20 H           2.4426    0.6391    1.2239 H       1  UNL1        0.0291
     21 H           2.8140    2.3790    1.2782 H       1  UNL1        0.0291
     22 H           0.0021   -0.0041    0.0020 H       1  UNL1        0.1516
     23 H          -2.0306    4.4112   -0.9861 H       1  UNL1        0.0434
     24 H          -2.6742    3.8049    0.5588 H       1  UNL1        0.0434
     25 H          -1.3591    5.0044    0.5519 H       1  UNL1        0.0434
     26 H           3.8175    2.2184   -0.3113 H       1  UNL1        0.0621
     27 H           5.1608    1.8691   -2.3452 H       1  UNL1        0.0618
     28 H           4.0745    1.1214   -4.4247 H       1  UNL1        0.0618
     29 H           1.6464    0.7145   -4.4679 H       1  UNL1        0.0618
     30 H           0.3045    1.0556   -2.4317 H       1  UNL1        0.0621
@<TRIPOS>BOND
     1     1     2    1
     2     1    17    1
     3     1    18    1
     4     1    19    1
     5     2     3    1
     6     2    20    1
     7     2    21    1
     8     3     9    1
     9     3     4    1
    10     3    11    1
    11     4     5    2
    12     4     6   am
    13     6     7   am
    14     6    10    1
    15     7     8    2
    16     7     9   am
    17     9    22    1
    18    10    23    1
    19    10    24    1
    20    10    25    1
    21    11    16   ar
    22    11    12   ar
    23    12    13   ar
    24    12    26    1
    25    13    14   ar
    26    13    27    1
    27    14    15   ar
    28    14    28    1
    29    15    16   ar
    30    15    29    1
    31    16    30    1
