@<TRIPOS>MOLECULE
ZINC00001204
 27 27 0 0 0
SMALL
GASTEIGER

@<TRIPOS>ATOM
      1 C          -0.0187    1.5258    0.0104 C.3     1  UNL1       -0.0188
      2 C           0.0021   -0.0041    0.0020 C.3     1  UNL1       -0.0152
      3 C           0.7421   -0.5109    1.2415 C.3     1  UNL1       -0.0188
      4 C           0.7182   -0.4975   -1.2568 C.3     1  UNL1        0.0191
      5 C           0.6316   -2.0003   -1.3275 C.ar    1  UNL1       -0.0235
      6 C           1.6670   -2.7761   -0.8406 C.ar    1  UNL1       -0.0570
      7 C           1.5859   -4.1546   -0.9015 C.ar    1  UNL1       -0.0614
      8 C           0.4734   -4.7582   -1.4581 C.ar    1  UNL1       -0.0604
      9 C          -0.5599   -3.9837   -1.9499 C.ar    1  UNL1       -0.0431
     10 C          -0.4814   -2.6037   -1.8849 C.ar    1  UNL1        0.0443
     11 CL         -1.7789   -1.6300   -2.5030 Cl      1  UNL1       -0.0833
     12 H           1.0039    1.9031    0.0027 H       1  UNL1        0.0287
     13 H          -0.5459    1.8868   -0.8726 H       1  UNL1        0.0287
     14 H          -0.5289    1.8773    0.9072 H       1  UNL1        0.0287
     15 H           0.2319   -0.1594    2.1383 H       1  UNL1        0.0287
     16 H           0.7568   -1.6008    1.2356 H       1  UNL1        0.0287
     17 H           1.7647   -0.1336    1.2338 H       1  UNL1        0.0287
     18 H           0.2444   -0.0644   -2.1377 H       1  UNL1        0.0371
     19 H           1.7648   -0.1951   -1.2215 H       1  UNL1        0.0371
     20 H           2.5380   -2.3051   -0.4095 H       1  UNL1        0.0621
     21 H           2.3935   -4.7603   -0.5179 H       1  UNL1        0.0618
     22 H           0.4122   -5.8353   -1.5087 H       1  UNL1        0.0618
     23 H          -1.4285   -4.4553   -2.3852 H       1  UNL1        0.0632
     24 H          -1.8504   -0.2542    0.8647 H       1  UNL1        0.1999
     25 H          -1.8861   -0.1914   -0.7968 H       1  UNL1        0.1999
     26 N          -1.3716   -0.5374    0.0114 N.4     1  UNL1        0.2228
     27 H          -1.3358   -1.5628   -0.0282 H       1  UNL1        0.1999
@<TRIPOS>UNITY_ATOM_ATTR
26 1
charge 1
@<TRIPOS>BOND
     1     1     2    1
     2     1    12    1
     3     1    13    1
     4     1    14    1
     5     2     3    1
     6     2     4    1
     7     2    26    1
     8     3    15    1
     9     3    16    1
    10     3    17    1
    11     4     5    1
    12     4    18    1
    13     4    19    1
    14     5    10   ar
    15     5     6   ar
    16     6     7   ar
    17     6    20    1
    18     7     8   ar
    19     7    21    1
    20     8     9   ar
    21     8    22    1
    22     9    10   ar
    23     9    23    1
    24    10    11    1
    25    24    26    1
    26    25    26    1
    27    26    27    1
