@<TRIPOS>MOLECULE
ZINC03830942
 18 19 0 0 0
SMALL
GASTEIGER

@<TRIPOS>ATOM
      1 C           3.1067    2.4374   -3.5854 C.ar    1  UNL1       -0.0430
      2 C           3.7704    2.7319   -2.4281 C.ar    1  UNL1       -0.0500
      3 C           3.1409    2.4294   -1.2065 C.ar    1  UNL1        0.0171
      4 C           3.7620    2.7036    0.0237 C.ar    1  UNL1        0.0238
      5 C           3.1223    2.3965    1.1864 C.ar    1  UNL1       -0.0312
      6 C           1.8549    1.8189    1.1752 C.ar    1  UNL1        0.0579
      7 C           1.2225    1.5323   -0.0014 C.ar    1  UNL1        0.1558
      8 C           1.8546    1.8360   -1.2252 C.ar    1  UNL1        0.1142
      9 N           1.2600    1.5735   -2.3923 N.ar    1  UNL1       -0.2512
     10 C           1.8430    1.8542   -3.5326 C.ar    1  UNL1        0.0284
     11 O          -0.0110    0.9628    0.0073 O.3     1  UNL1       -0.5036
     12 I           0.9080    1.3737    2.9902 I       1  UNL1       -0.0399
     13 I           5.6636    3.5816    0.0695 I       1  UNL1       -0.0431
     14 H           3.5614    2.6570   -4.5401 H       1  UNL1        0.0633
     15 H           4.7510    3.1839   -2.4502 H       1  UNL1        0.0625
     16 H           3.6024    2.6084    2.1303 H       1  UNL1        0.0640
     17 H           1.3300    1.6269   -4.4554 H       1  UNL1        0.0830
     18 H           0.0021   -0.0041    0.0020 H       1  UNL1        0.2923
@<TRIPOS>BOND
     1     1    10   ar
     2     1     2   ar
     3     1    14    1
     4     2     3   ar
     5     2    15    1
     6     3     8   ar
     7     3     4   ar
     8     4     5   ar
     9     4    13    1
    10     5     6   ar
    11     5    16    1
    12     6     7   ar
    13     6    12    1
    14     7     8   ar
    15     7    11    1
    16     8     9   ar
    17     9    10   ar
    18    10    17    1
    19    11    18    1
