@<TRIPOS>MOLECULE
ZINC08101172
 60 65 0 0 0
SMALL
GASTEIGER

@<TRIPOS>ATOM
      1 C          -5.7097   -1.6437   -1.5333 C.3     1  UNL1       -0.0605
      2 C          -5.3084   -0.1951   -1.2477 C.3     1  UNL1       -0.0152
      3 C          -4.9432   -0.0491    0.2309 C.3     1  UNL1       -0.0271
      4 N          -4.5529    1.3597    0.5086 N.4     1  UNL1        0.2708
      5 C          -3.2796    1.8700   -0.1324 C.3     1  UNL1        0.0039
      6 H          -3.3404    1.5963    0.8084 H       1  UNL1        0.0872
      7 C          -3.3051    3.2909   -0.5481 C.3     1  UNL1       -0.0038
      8 C          -3.8390    4.0733    0.7549 C.3     1  UNL1       -0.0152
      9 H          -3.5441    5.1382    0.9077 H       1  UNL1        0.0314
     10 C          -5.3607    3.7787    0.6576 C.3     1  UNL1        0.0316
     11 H          -5.7831    4.4745   -0.1017 H       1  UNL1        0.0384
     12 C          -5.6016    2.3715    0.1591 C.3     1  UNL1        0.0877
     13 H          -5.6939    2.3975   -0.9359 H       1  UNL1        0.1188
     14 O          -6.8587    1.9084    0.6753 O.3     1  UNL1       -0.3526
     15 C          -6.0812    4.0708    1.9684 C.3     1  UNL1       -0.0452
     16 C          -5.9067    5.5476    2.3282 C.3     1  UNL1       -0.0647
     17 C          -3.2578    3.0148    1.6700 C.3     1  UNL1        0.0326
     18 H          -2.4740    2.8745    0.9515 H       1  UNL1        0.0384
     19 C          -4.1386    1.7669    1.9354 C.3     1  UNL1       -0.0096
     20 H          -4.9866    1.8758    2.6807 H       1  UNL1        0.0857
     21 C          -3.0541    0.7037    2.4053 C.3     1  UNL1        0.0049
     22 C          -1.8082    1.3254    1.8079 C.3     1  UNL1        0.0525
     23 C          -1.9782    1.1263    0.2280 C.3     1  UNL1        0.0783
     24 H          -1.9671    0.0993   -0.1539 H       1  UNL1        0.0565
     25 N          -0.7369    1.9270   -0.0939 N.pl3   1  UNL1       -0.3234
     26 C           0.2120    1.3542    0.7748 C.ar    1  UNL1        0.0338
     27 C          -0.4197    0.9010    1.9653 C.ar    1  UNL1       -0.0156
     28 C           0.2906    0.2543    2.9503 C.ar    1  UNL1       -0.0561
     29 C           1.6555    0.0846    2.7525 C.ar    1  UNL1       -0.0614
     30 C           2.2830    0.5577    1.6192 C.ar    1  UNL1       -0.0600
     31 C           1.5821    1.2062    0.6116 C.ar    1  UNL1       -0.0404
     32 C          -0.3397    1.7198   -1.4962 C.3     1  UNL1        0.0012
     33 C          -1.9199    2.8075    2.3317 C.3     1  UNL1        0.0752
     34 H          -1.1555    3.4724    1.9189 H       1  UNL1        0.0607
     35 O          -1.9976    2.9086    3.7564 O.3     1  UNL1       -0.3904
     36 H          -6.5695   -1.9104   -0.9186 H       1  UNL1        0.0232
     37 H          -5.9699   -1.7477   -2.5867 H       1  UNL1        0.0232
     38 H          -4.8757   -2.3049   -1.2980 H       1  UNL1        0.0232
     39 H          -6.1424    0.4661   -1.4830 H       1  UNL1        0.0314
     40 H          -4.4487    0.0716   -1.8624 H       1  UNL1        0.0314
     41 H          -4.1093   -0.7103    0.4662 H       1  UNL1        0.0816
     42 H          -5.8030   -0.3159    0.8455 H       1  UNL1        0.0816
     43 H          -3.9744    3.4486   -1.4226 H       1  UNL1        0.0323
     44 H          -2.3050    3.6551   -0.8635 H       1  UNL1        0.0323
     45 H          -7.6142    2.4551    0.4195 H       1  UNL1        0.2154
     46 H          -7.1421    3.8467    1.8576 H       1  UNL1        0.0268
     47 H          -5.6598    3.4516    2.7604 H       1  UNL1        0.0268
     48 H          -6.5046    5.7799    3.2095 H       1  UNL1        0.0230
     49 H          -4.8562    5.7486    2.5386 H       1  UNL1        0.0230
     50 H          -6.2349    6.1663    1.4930 H       1  UNL1        0.0230
     51 H          -3.2182   -0.2896    2.0226 H       1  UNL1        0.0330
     52 H          -2.9791    0.6879    3.4953 H       1  UNL1        0.0330
     53 H          -0.1930   -0.1109    3.8444 H       1  UNL1        0.0621
     54 H           2.2364   -0.4267    3.5055 H       1  UNL1        0.0618
     55 H           3.3494    0.4207    1.5128 H       1  UNL1        0.0618
     56 H           2.0976    1.5754   -0.2626 H       1  UNL1        0.0636
     57 H          -0.2688    0.6513   -1.6997 H       1  UNL1        0.0428
     58 H           0.6286    2.1882   -1.6726 H       1  UNL1        0.0428
     59 H          -1.0846    2.1665   -2.1547 H       1  UNL1        0.0428
     60 H          -2.0663    3.8161    4.0831 H       1  UNL1        0.2098
@<TRIPOS>UNITY_ATOM_ATTR
4 1
charge 1
@<TRIPOS>BOND
     1     1     2    1
     2     1    36    1
     3     1    37    1
     4     1    38    1
     5     2     3    1
     6     2    39    1
     7     2    40    1
     8     3     4    1
     9     3    41    1
    10     3    42    1
    11     4    12    1
    12     4    19    1
    13     4     5    1
    14     5     6    1
    15     5    23    1
    16     5     7    1
    17     7     8    1
    18     7    43    1
    19     7    44    1
    20     8     9    1
    21     8    10    1
    22     8    17    1
    23    10    11    1
    24    10    12    1
    25    10    15    1
    26    12    13    1
    27    12    14    1
    28    14    45    1
    29    15    16    1
    30    15    46    1
    31    15    47    1
    32    16    48    1
    33    16    49    1
    34    16    50    1
    35    17    18    1
    36    17    33    1
    37    17    19    1
    38    19    20    1
    39    19    21    1
    40    21    22    1
    41    21    51    1
    42    21    52    1
    43    22    27    1
    44    22    23    1
    45    22    33    1
    46    23    24    1
    47    23    25    1
    48    25    26    1
    49    25    32    1
    50    26    31   ar
    51    26    27   ar
    52    27    28   ar
    53    28    29   ar
    54    28    53    1
    55    29    30   ar
    56    29    54    1
    57    30    31   ar
    58    30    55    1
    59    31    56    1
    60    32    57    1
    61    32    58    1
    62    32    59    1
    63    33    34    1
    64    33    35    1
    65    35    60    1
