@<TRIPOS>MOLECULE
ZINC03831055
 55 58 0 0 0
SMALL
GASTEIGER

@<TRIPOS>ATOM
      1 C           1.6470    8.5881   -2.5727 C.3     1  UNL1       -0.0426
      2 C           3.8481    9.5905   -2.6859 C.3     1  UNL1       -0.0426
      3 C           3.0662    8.6169   -0.6149 C.3     1  UNL1        0.0465
      4 H           2.2733    9.2963   -0.2842 H       1  UNL1        0.0939
      5 C           2.8414    7.2508    0.0174 C.3     1  UNL1        0.0791
      6 H           2.7101    7.3634    1.0998 H       1  UNL1        0.0423
      7 C           1.5933    6.5941   -0.5706 C.3     1  UNL1        0.0781
      8 H           1.8042    6.4124   -1.6417 H       1  UNL1        0.0609
      9 C           1.3093    5.2557    0.0364 C.3     1  UNL1        0.0427
     10 H           1.0194    4.5979   -0.7985 H       1  UNL1        0.0425
     11 C           0.1735    5.1854    1.0207 C.2     1  UNL1       -0.0364
     12 C          -0.4890    6.2145    1.5155 C.2     1  UNL1       -0.0942
     13 C          -0.1694    3.8102    1.4781 C.ar    1  UNL1       -0.0074
     14 C          -1.4729    3.4079    1.7011 C.ar    1  UNL1       -0.0534
     15 C          -1.7207    2.1247    2.1603 C.ar    1  UNL1       -0.0577
     16 C          -0.6753    1.2513    2.3967 C.ar    1  UNL1       -0.0194
     17 C           0.6393    1.6354    2.1638 C.ar    1  UNL1        0.1282
     18 C           0.9073    2.9204    1.6869 C.ar    1  UNL1        0.0708
     19 C           2.2787    3.3792    1.4049 C.2     1  UNL1        0.1972
     20 O           3.2164    2.7231    1.8198 O.2     1  UNL1       -0.2867
     21 C           2.5024    4.5745    0.6566 C.2     1  UNL1        0.0503
     22 C           3.7565    5.0461    0.5381 C.2     1  UNL1        0.1412
     23 C           4.0288    6.3110   -0.2555 C.3     1  UNL1        0.1960
     24 C           5.2884    6.9572    0.2749 C.2     1  UNL1        0.2109
     25 O           6.2097    6.2914    0.7097 O.2     1  UNL1       -0.2882
     26 C           5.4175    8.4159    0.2470 C.2     1  UNL1        0.1248
     27 C           4.3824    9.2009   -0.1913 C.2     1  UNL1        0.1579
     28 O           4.5425   10.5307   -0.2315 O.2     1  UNL1       -0.5050
     29 C           6.6737    9.0429    0.6935 C.2     1  UNL1        0.2485
     30 O           7.6540    9.0204   -0.0263 O.2     1  UNL1       -0.2702
     31 N           6.7367    9.6414    1.8994 N.am    1  UNL1       -0.3252
     32 O           4.1566    6.0054   -1.6503 O.3     1  UNL1       -0.3730
     33 O           4.7845    4.3903    1.1214 O.2     1  UNL1       -0.5072
     34 O           1.6471    0.7598    2.4041 O.3     1  UNL1       -0.5060
     35 O           0.4998    7.4909   -0.5197 O.3     1  UNL1       -0.3902
     36 H           1.1316    9.4349   -2.1194 H       1  UNL1        0.0778
     37 H           1.6537    8.7047   -3.6565 H       1  UNL1        0.0778
     38 H           1.1302    7.6651   -2.3098 H       1  UNL1        0.0778
     39 H           4.8933    9.4415   -2.4146 H       1  UNL1        0.0778
     40 H           3.7451    9.5511   -3.7703 H       1  UNL1        0.0778
     41 H           3.5139   10.5629   -2.3243 H       1  UNL1        0.0778
     42 H          -1.3745    6.0504    2.1116 H       1  UNL1        0.0538
     43 H          -0.1455    7.2203    1.3242 H       1  UNL1        0.0538
     44 H          -2.2993    4.0782    1.5152 H       1  UNL1        0.0624
     45 H          -2.7374    1.8050    2.3309 H       1  UNL1        0.0619
     46 H          -0.8810    0.2576    2.7667 H       1  UNL1        0.0654
     47 H           5.4641   10.7650    0.0778 H       1  UNL1        0.2919
     48 H           5.9791    9.5960    2.5036 H       1  UNL1        0.1453
     49 H           7.5395   10.1176    2.1632 H       1  UNL1        0.1453
     50 H           4.8462    5.3573   -1.8494 H       1  UNL1        0.2113
     51 H           5.6386    4.8753    0.9338 H       1  UNL1        0.2918
     52 H           1.8791    0.2089    1.6439 H       1  UNL1        0.2922
     53 H          -0.2892    7.1757   -0.9815 H       1  UNL1        0.2098
     54 N           3.0400    8.5085   -2.0851 N.4     1  UNL1        0.2389
     55 H           3.4383    7.6029   -2.3598 H       1  UNL1        0.2035
@<TRIPOS>UNITY_ATOM_ATTR
54 1
charge 1
@<TRIPOS>BOND
     1     1    36    1
     2     1    37    1
     3     1    38    1
     4     1    54    1
     5     2    39    1
     6     2    40    1
     7     2    41    1
     8     2    54    1
     9     3     4    1
    10     3    27    1
    11     3     5    1
    12     3    54    1
    13     5     6    1
    14     5    23    1
    15     5     7    1
    16     7     8    1
    17     7     9    1
    18     7    35    1
    19     9    10    1
    20     9    21    1
    21     9    11    1
    22    11    12    2
    23    11    13    1
    24    12    42    1
    25    12    43    1
    26    13    18   ar
    27    13    14   ar
    28    14    15   ar
    29    14    44    1
    30    15    16   ar
    31    15    45    1
    32    16    17   ar
    33    16    46    1
    34    17    18   ar
    35    17    34    1
    36    18    19    1
    37    19    20    2
    38    19    21    1
    39    21    22    2
    40    22    23    1
    41    22    33    1
    42    23    24    1
    43    23    32    1
    44    24    25    2
    45    24    26    1
    46    26    27    2
    47    26    29    1
    48    27    28    1
    49    28    47    1
    50    29    30    2
    51    29    31   am
    52    31    48    1
    53    31    49    1
    54    32    50    1
    55    33    51    1
    56    34    52    1
    57    35    53    1
    58    54    55    1
