@<TRIPOS>MOLECULE
ZINC03831368
 59 62 0 0 0
SMALL
GASTEIGER

@<TRIPOS>ATOM
      1 C           3.4093   -1.1159   -7.8773 C.3     1  UNL1        0.0332
      2 C           3.4637   -1.0021   -6.3756 C.2     1  UNL1        0.3043
      3 O           3.2033   -1.9604   -5.6874 O.2     1  UNL1       -0.2512
      4 O           3.8013    0.1639   -5.8027 O.3     1  UNL1       -0.4570
      5 C           3.8331    0.2004   -4.3515 C.3     1  UNL1        0.1530
      6 C           4.2293    1.5800   -3.8923 C.2     1  UNL1        0.2022
      7 O           4.4610    2.4433   -4.7043 O.2     1  UNL1       -0.2907
      8 C           4.3362    1.8813   -2.4241 C.3     1  UNL1        0.1326
      9 C           5.1786    3.1605   -2.1885 C.3     1  UNL1       -0.0161
     10 C           4.3943    4.0192   -1.1575 C.3     1  UNL1       -0.0463
     11 C           3.3607    3.0306   -0.5993 C.3     1  UNL1       -0.0292
     12 H           3.9035    2.3354    0.0789 H       1  UNL1        0.0310
     13 C           2.9451    2.2540   -1.8626 C.3     1  UNL1        0.0092
     14 C           2.0675    1.0807   -1.5209 C.3     1  UNL1       -0.0178
     15 C           1.1173    1.4072   -0.3534 C.3     1  UNL1        0.0600
     16 H           1.5551    1.0224    0.5727 H       1  UNL1        0.0596
     17 C           0.8905    2.9034   -0.2341 C.3     1  UNL1        0.0007
     18 H           0.5541    3.2914   -1.2092 H       1  UNL1        0.0340
     19 C           2.2005    3.6005    0.1596 C.3     1  UNL1       -0.0311
     20 H           2.4160    3.3846    1.2247 H       1  UNL1        0.0308
     21 C           2.0672    5.1147    0.0513 C.3     1  UNL1       -0.0458
     22 C           0.9824    5.5883    1.0407 C.3     1  UNL1       -0.0302
     23 C          -0.2767    4.8129    0.6973 C.2     1  UNL1       -0.0559
     24 C          -1.3572    5.4701    0.3077 C.2     1  UNL1       -0.0149
     25 C          -2.5386    4.7244   -0.1640 C.2     1  UNL1        0.1787
     26 O          -3.4274    5.2828   -0.7797 O.2     1  UNL1       -0.2879
     27 C          -2.6087    3.2818    0.1294 C.2     1  UNL1       -0.0180
     28 C          -1.5155    2.6482    0.5414 C.2     1  UNL1       -0.0701
     29 C          -0.1994    3.3066    0.7504 C.3     1  UNL1        0.0131
     30 C           0.2267    2.9180    2.1651 C.3     1  UNL1       -0.0520
     31 O          -0.1220    0.7280   -0.5880 O.3     1  UNL1       -0.3914
     32 C           2.2855    3.1501   -2.9144 C.3     1  UNL1       -0.0562
     33 O           4.8804    0.7780   -1.7088 O.3     1  UNL1       -0.3804
     34 H           4.3912   -0.8921   -8.2944 H       1  UNL1        0.0342
     35 H           3.1191   -2.1293   -8.1547 H       1  UNL1        0.0342
     36 H           2.6783   -0.4085   -8.2691 H       1  UNL1        0.0342
     37 H           4.4983   -0.4666   -4.0158 H       1  UNL1        0.0779
     38 H           2.8453   -0.0430   -3.9602 H       1  UNL1        0.0779
     39 H           6.1565    2.8970   -1.7890 H       1  UNL1        0.0297
     40 H           5.2907    3.7102   -3.1228 H       1  UNL1        0.0297
     41 H           3.9205    4.8702   -1.6381 H       1  UNL1        0.0269
     42 H           5.0626    4.3587   -0.3627 H       1  UNL1        0.0269
     43 H           2.6824    0.2148   -1.2426 H       1  UNL1        0.0297
     44 H           1.4712    0.7945   -2.3976 H       1  UNL1        0.0297
     45 H           1.7763    5.3917   -0.9586 H       1  UNL1        0.0271
     46 H           3.0137    5.5858    0.3099 H       1  UNL1        0.0271
     47 H           0.8068    6.6561    0.9003 H       1  UNL1        0.0310
     48 H           1.2967    5.3950    2.0603 H       1  UNL1        0.0310
     49 H          -1.3730    6.5508    0.3350 H       1  UNL1        0.0655
     50 H          -3.5387    2.7448    0.0106 H       1  UNL1        0.0653
     51 H          -1.6023    1.5952    0.7688 H       1  UNL1        0.0582
     52 H           1.1545    3.4307    2.4188 H       1  UNL1        0.0241
     53 H          -0.5523    3.2059    2.8711 H       1  UNL1        0.0241
     54 H           0.3818    1.8403    2.2147 H       1  UNL1        0.0241
     55 H          -0.0348   -0.2314   -0.6724 H       1  UNL1        0.2098
     56 H           3.0237    3.8457   -3.3136 H       1  UNL1        0.0236
     57 H           1.8932    2.5332   -3.7229 H       1  UNL1        0.0236
     58 H           1.4702    3.7094   -2.4556 H       1  UNL1        0.0236
     59 H           5.7534    0.5005   -2.0186 H       1  UNL1        0.2108
@<TRIPOS>BOND
     1     1     2    1
     2     1    34    1
     3     1    35    1
     4     1    36    1
     5     2     3    2
     6     2     4    1
     7     4     5    1
     8     5     6    1
     9     5    37    1
    10     5    38    1
    11     6     7    2
    12     6     8    1
    13     8    13    1
    14     8     9    1
    15     8    33    1
    16     9    10    1
    17     9    39    1
    18     9    40    1
    19    10    11    1
    20    10    41    1
    21    10    42    1
    22    11    12    1
    23    11    19    1
    24    11    13    1
    25    13    14    1
    26    13    32    1
    27    14    15    1
    28    14    43    1
    29    14    44    1
    30    15    16    1
    31    15    17    1
    32    15    31    1
    33    17    18    1
    34    17    29    1
    35    17    19    1
    36    19    20    1
    37    19    21    1
    38    21    22    1
    39    21    45    1
    40    21    46    1
    41    22    23    1
    42    22    47    1
    43    22    48    1
    44    23    29    1
    45    23    24    2
    46    24    25    1
    47    24    49    1
    48    25    26    2
    49    25    27    1
    50    27    28    2
    51    27    50    1
    52    28    29    1
    53    28    51    1
    54    29    30    1
    55    30    52    1
    56    30    53    1
    57    30    54    1
    58    31    55    1
    59    32    56    1
    60    32    57    1
    61    32    58    1
    62    33    59    1
