@<TRIPOS>MOLECULE
ZINC02014721
 44 45 0 0 0
SMALL
GASTEIGER

@<TRIPOS>ATOM
      1 C          -4.1225    8.9338   -2.4631 C.3     1  UNL1       -0.0306
      2 C          -5.0046    7.8081   -1.9195 C.3     1  UNL1        0.0897
      3 O          -4.1652    6.7393   -1.4083 O.3     1  UNL1       -0.4641
      4 C          -4.7887    5.6686   -0.8920 C.2     1  UNL1        0.3236
      5 O          -5.9960    5.6259   -0.8680 O.2     1  UNL1       -0.2496
      6 C          -3.9830    4.5199   -0.3423 C.3     1  UNL1        0.1387
      7 C          -2.9724    5.0395    0.6880 C.3     1  UNL1       -0.0241
      8 C          -3.7238    5.8854    1.7186 C.3     1  UNL1       -0.0330
      9 C          -4.9246    5.1397    2.2224 C.2     1  UNL1       -0.0826
     10 C          -5.4453    4.1156    1.6260 C.2     1  UNL1       -0.0389
     11 C          -4.9145    3.5245    0.3529 C.3     1  UNL1        0.0176
     12 H          -4.3626    2.6130    0.5827 H       1  UNL1        0.0912
     13 C          -5.6402    2.2078   -1.5451 C.3     1  UNL1       -0.0427
     14 C          -7.2023    2.7417    0.2262 C.3     1  UNL1       -0.0427
     15 C          -3.2523    3.8304   -1.4655 C.ar    1  UNL1       -0.0249
     16 C          -2.6322    2.6150   -1.2434 C.ar    1  UNL1       -0.0573
     17 C          -1.9570    1.9854   -2.2723 C.ar    1  UNL1       -0.0615
     18 C          -1.9112    2.5658   -3.5261 C.ar    1  UNL1       -0.0617
     19 C          -2.5362    3.7784   -3.7496 C.ar    1  UNL1       -0.0615
     20 C          -3.2069    4.4106   -2.7194 C.ar    1  UNL1       -0.0573
     21 H          -3.4908    9.3192   -1.6627 H       1  UNL1        0.0262
     22 H          -3.4955    8.5482   -3.2670 H       1  UNL1        0.0262
     23 H          -4.7526    9.7362   -2.8468 H       1  UNL1        0.0262
     24 H          -5.6363    7.4228   -2.7199 H       1  UNL1        0.0694
     25 H          -5.6316    8.1938   -1.1156 H       1  UNL1        0.0694
     26 H          -2.4907    4.1978    1.1856 H       1  UNL1        0.0284
     27 H          -2.2219    5.6521    0.1884 H       1  UNL1        0.0284
     28 H          -4.0457    6.8180    1.2553 H       1  UNL1        0.0308
     29 H          -3.0596    6.1074    2.5539 H       1  UNL1        0.0308
     30 H          -5.3832    5.4787    3.1396 H       1  UNL1        0.0571
     31 H          -6.3161    3.6584    2.0721 H       1  UNL1        0.0625
     32 H          -5.0737    1.4104   -1.0641 H       1  UNL1        0.0778
     33 H          -6.5314    1.7892   -2.0127 H       1  UNL1        0.0778
     34 H          -5.0217    2.6856   -2.3048 H       1  UNL1        0.0778
     35 H          -7.5301    3.5330    0.9004 H       1  UNL1        0.0778
     36 H          -8.0112    2.4906   -0.4599 H       1  UNL1        0.0778
     37 H          -6.9307    1.8597    0.8061 H       1  UNL1        0.0778
     38 H          -2.6717    2.1595   -0.2650 H       1  UNL1        0.0621
     39 H          -1.4690    1.0379   -2.0977 H       1  UNL1        0.0618
     40 H          -1.3875    2.0717   -4.3311 H       1  UNL1        0.0618
     41 H          -2.5007    4.2316   -4.7293 H       1  UNL1        0.0618
     42 H          -3.6952    5.3579   -2.8941 H       1  UNL1        0.0621
     43 N          -6.0437    3.2266   -0.5531 N.4     1  UNL1        0.2370
     44 H          -6.3104    4.0861   -1.0474 H       1  UNL1        0.2034
@<TRIPOS>UNITY_ATOM_ATTR
43 1
charge 1
@<TRIPOS>BOND
     1     1     2    1
     2     1    21    1
     3     1    22    1
     4     1    23    1
     5     2     3    1
     6     2    24    1
     7     2    25    1
     8     3     4    1
     9     4     5    2
    10     4     6    1
    11     6    11    1
    12     6     7    1
    13     6    15    1
    14     7     8    1
    15     7    26    1
    16     7    27    1
    17     8     9    1
    18     8    28    1
    19     8    29    1
    20     9    10    2
    21     9    30    1
    22    10    11    1
    23    10    31    1
    24    11    12    1
    25    11    43    1
    26    13    32    1
    27    13    33    1
    28    13    34    1
    29    13    43    1
    30    14    35    1
    31    14    36    1
    32    14    37    1
    33    14    43    1
    34    15    20   ar
    35    15    16   ar
    36    16    17   ar
    37    16    38    1
    38    17    18   ar
    39    17    39    1
    40    18    19   ar
    41    18    40    1
    42    19    20   ar
    43    19    41    1
    44    20    42    1
    45    43    44    1
