@<TRIPOS>MOLECULE
ZINC11616212
 60 63 0 0 0
SMALL
GASTEIGER

@<TRIPOS>ATOM
      1 C           9.8099    1.6369   -3.5530 C.3     1  UNL1        0.0333
      2 C           8.6009    0.8025   -3.8896 C.2     1  UNL1        0.3045
      3 O           8.4879    0.3196   -4.9914 O.2     1  UNL1       -0.2511
      4 O           7.6497    0.5958   -2.9654 O.3     1  UNL1       -0.4574
      5 C           6.5135   -0.2179   -3.3595 C.3     1  UNL1        0.1215
      6 H           6.8262   -0.9413   -4.1124 H       1  UNL1        0.0779
      7 C           5.9625   -0.9568   -2.1357 C.3     1  UNL1       -0.0114
      8 C           5.4434    0.0805   -1.1403 C.3     1  UNL1       -0.0426
      9 C           4.2919    0.8709   -1.7377 C.3     1  UNL1       -0.0166
     10 H           3.3783    0.2901   -1.6112 H       1  UNL1        0.0348
     11 C           4.1238    2.1959   -0.9852 C.3     1  UNL1       -0.0314
     12 H           5.0478    2.7704   -1.0499 H       1  UNL1        0.0309
     13 C           3.8154    1.8894    0.4821 C.3     1  UNL1       -0.0487
     14 C           2.4773    1.1429    0.6185 C.3     1  UNL1       -0.0425
     15 C           1.4047    2.0156   -0.0005 C.3     1  UNL1        0.0223
     16 C           1.7274    2.1427   -1.5148 C.3     1  UNL1       -0.0278
     17 H           1.8936    1.1589   -1.9537 H       1  UNL1        0.0310
     18 C           2.9773    2.9961   -1.6233 C.3     1  UNL1       -0.0339
     19 H           2.8322    3.9244   -1.0708 H       1  UNL1        0.0307
     20 C           3.3019    3.3178   -3.0778 C.3     1  UNL1       -0.0460
     21 C           3.4286    2.0225   -3.8839 C.3     1  UNL1       -0.0311
     22 C           4.4614    1.1398   -3.2033 C.2     1  UNL1       -0.0667
     23 C           5.4350    0.6633   -3.9227 C.2     1  UNL1       -0.0445
     24 C           0.4391    2.7751   -2.0520 C.3     1  UNL1       -0.0447
     25 C          -0.6717    2.0031   -1.2885 C.3     1  UNL1       -0.0005
     26 C          -0.0179    1.4678    0.0101 C.3     1  UNL1        0.1784
     27 C           0.0021   -0.0041    0.0020 C.1     1  UNL1       -0.0576
     28 C           0.0180   -1.1779   -0.0044 C.1     1  UNL1       -0.1152
     29 O          -0.7358    1.9542    1.1747 O.3     1  UNL1       -0.4447
     30 C          -2.0166    1.5741    1.3037 C.2     1  UNL1        0.3054
     31 O          -2.5213    0.8586    0.4710 O.2     1  UNL1       -0.2511
     32 C          -2.8253    2.0397    2.4871 C.3     1  UNL1        0.0333
     33 C           1.4286    3.4005    0.6493 C.3     1  UNL1       -0.0547
     34 H          10.5945    0.9948   -3.1529 H       1  UNL1        0.0342
     35 H          10.1708    2.1335   -4.4537 H       1  UNL1        0.0342
     36 H           9.5386    2.3860   -2.8091 H       1  UNL1        0.0342
     37 H           6.7559   -1.5443   -1.6735 H       1  UNL1        0.0304
     38 H           5.1477   -1.6140   -2.4396 H       1  UNL1        0.0304
     39 H           6.2515    0.7644   -0.8807 H       1  UNL1        0.0272
     40 H           5.1006   -0.4274   -0.2389 H       1  UNL1        0.0272
     41 H           3.7624    2.8244    1.0398 H       1  UNL1        0.0268
     42 H           4.6137    1.2718    0.8936 H       1  UNL1        0.0268
     43 H           2.2540    0.9726    1.6717 H       1  UNL1        0.0272
     44 H           2.5286    0.1898    0.0922 H       1  UNL1        0.0272
     45 H           4.2420    3.8673   -3.1258 H       1  UNL1        0.0271
     46 H           2.5047    3.9300   -3.4996 H       1  UNL1        0.0271
     47 H           3.7521    2.2513   -4.8993 H       1  UNL1        0.0310
     48 H           2.4669    1.5101   -3.9103 H       1  UNL1        0.0310
     49 H           5.4695    0.9126   -4.9729 H       1  UNL1        0.0608
     50 H           0.4031    3.8382   -1.8142 H       1  UNL1        0.0270
     51 H           0.3519    2.6186   -3.1272 H       1  UNL1        0.0270
     52 H          -1.0344    1.1729   -1.8945 H       1  UNL1        0.0314
     53 H          -1.4939    2.6755   -1.0437 H       1  UNL1        0.0314
     54 H           0.0322   -2.2278   -0.0102 H       1  UNL1        0.1229
     55 H          -2.2063    2.6713    3.1243 H       1  UNL1        0.0342
     56 H          -3.6863    2.6093    2.1373 H       1  UNL1        0.0342
     57 H          -3.1682    1.1752    3.0556 H       1  UNL1        0.0342
     58 H           1.1027    3.3209    1.6864 H       1  UNL1        0.0237
     59 H           2.4423    3.7997    0.6166 H       1  UNL1        0.0237
     60 H           0.7578    4.0675    0.1078 H       1  UNL1        0.0237
@<TRIPOS>BOND
     1     1     2    1
     2     1    34    1
     3     1    35    1
     4     1    36    1
     5     2     3    2
     6     2     4    1
     7     4     5    1
     8     5     6    1
     9     5    23    1
    10     5     7    1
    11     7     8    1
    12     7    37    1
    13     7    38    1
    14     8     9    1
    15     8    39    1
    16     8    40    1
    17     9    10    1
    18     9    22    1
    19     9    11    1
    20    11    12    1
    21    11    18    1
    22    11    13    1
    23    13    14    1
    24    13    41    1
    25    13    42    1
    26    14    15    1
    27    14    43    1
    28    14    44    1
    29    15    26    1
    30    15    16    1
    31    15    33    1
    32    16    17    1
    33    16    18    1
    34    16    24    1
    35    18    19    1
    36    18    20    1
    37    20    21    1
    38    20    45    1
    39    20    46    1
    40    21    22    1
    41    21    47    1
    42    21    48    1
    43    22    23    2
    44    23    49    1
    45    24    25    1
    46    24    50    1
    47    24    51    1
    48    25    26    1
    49    25    52    1
    50    25    53    1
    51    26    27    1
    52    26    29    1
    53    27    28    3
    54    28    54    1
    55    29    30    1
    56    30    31    2
    57    30    32    1
    58    32    55    1
    59    32    56    1
    60    32    57    1
    61    33    58    1
    62    33    59    1
    63    33    60    1
