@<TRIPOS>MOLECULE
ZINC03831276
 45 48 0 0 0
SMALL
GASTEIGER

@<TRIPOS>ATOM
      1 C           1.7720    6.5045   -1.4161 C.ar    1  UNL1       -0.0555
      2 C           0.4021    6.5683   -1.2453 C.ar    1  UNL1       -0.0262
      3 C          -0.1959    7.7658   -0.8914 C.ar    1  UNL1        0.1234
      4 C           0.5801    8.8971   -0.7039 C.ar    1  UNL1       -0.0262
      5 C           1.9504    8.8297   -0.8701 C.ar    1  UNL1       -0.0555
      6 C           2.5464    7.6334   -1.2230 C.ar    1  UNL1       -0.0413
      7 C           4.0408    7.5611   -1.4035 C.3     1  UNL1        0.0202
      8 H           4.4789    8.5419   -1.2183 H       1  UNL1        0.0378
      9 C           4.3627    7.1188   -2.8337 C.3     1  UNL1       -0.0032
     10 C           5.8792    6.9884   -2.9930 C.3     1  UNL1       -0.0329
     11 C           6.1354    6.4312   -0.6486 C.3     1  UNL1       -0.0062
     12 C           4.6265    6.5449   -0.4193 C.3     1  UNL1        0.1055
     13 H           4.4370    6.8761    0.6017 H       1  UNL1        0.0656
     14 O           4.0148    5.2706   -0.6288 O.3     1  UNL1       -0.3661
     15 C           3.9319    4.4650    0.5487 C.3     1  UNL1        0.0734
     16 C           3.2736    3.1515    0.2134 C.ar    1  UNL1       -0.0182
     17 C           4.0443    2.0765   -0.1888 C.ar    1  UNL1       -0.0527
     18 C           3.4451    0.8698   -0.4978 C.ar    1  UNL1       -0.0158
     19 C           2.0693    0.7351   -0.4056 C.ar    1  UNL1        0.1662
     20 C           1.2929    1.8180   -0.0005 C.ar    1  UNL1        0.1666
     21 C           1.9004    3.0243    0.3081 C.ar    1  UNL1       -0.0108
     22 O          -0.0175    1.4357    0.0099 O.3     1  UNL1       -0.4526
     23 C           0.0021   -0.0041    0.0020 C.3     1  UNL1        0.2332
     24 O           1.2454   -0.3257   -0.6491 O.3     1  UNL1       -0.4526
     25 F          -1.5357    7.8306   -0.7296 F       1  UNL1       -0.2055
     26 H           2.2382    5.5716   -1.6964 H       1  UNL1        0.0621
     27 H          -0.2023    5.6853   -1.3922 H       1  UNL1        0.0646
     28 H           0.1146    9.8318   -0.4281 H       1  UNL1        0.0646
     29 H           2.5559    9.7120   -0.7239 H       1  UNL1        0.0621
     30 H           3.8919    6.1558   -3.0314 H       1  UNL1        0.0323
     31 H           3.9846    7.8601   -3.5377 H       1  UNL1        0.0323
     32 H           6.1110    6.6598   -4.0061 H       1  UNL1        0.0814
     33 H           6.3481    7.9550   -2.8086 H       1  UNL1        0.0814
     34 H           6.6031    7.4003   -0.4752 H       1  UNL1        0.0840
     35 H           6.5533    5.6978    0.0410 H       1  UNL1        0.0840
     36 H           3.3420    4.9848    1.3037 H       1  UNL1        0.0610
     37 H           4.9346    4.2809    0.9343 H       1  UNL1        0.0610
     38 H           5.1170    2.1797   -0.2612 H       1  UNL1        0.0622
     39 H           4.0496    0.0316   -0.8117 H       1  UNL1        0.0655
     40 H           1.3007    3.8658    0.6223 H       1  UNL1        0.0659
     41 H          -0.0088   -0.3929    1.0203 H       1  UNL1        0.1166
     42 H          -0.8424   -0.3954   -0.5653 H       1  UNL1        0.1166
     43 N           6.3966    5.9944   -2.0334 N.4     1  UNL1        0.2288
     44 H           7.4088    5.8881   -2.1692 H       1  UNL1        0.2014
     45 H           5.9328    5.0931   -2.1969 H       1  UNL1        0.2014
@<TRIPOS>UNITY_ATOM_ATTR
43 1
charge 1
@<TRIPOS>BOND
     1     1     6   ar
     2     1     2   ar
     3     1    26    1
     4     2     3   ar
     5     2    27    1
     6     3     4   ar
     7     3    25    1
     8     4     5   ar
     9     4    28    1
    10     5     6   ar
    11     5    29    1
    12     6     7    1
    13     7     8    1
    14     7    12    1
    15     7     9    1
    16     9    10    1
    17     9    30    1
    18     9    31    1
    19    10    32    1
    20    10    33    1
    21    10    43    1
    22    11    12    1
    23    11    34    1
    24    11    35    1
    25    11    43    1
    26    12    13    1
    27    12    14    1
    28    14    15    1
    29    15    16    1
    30    15    36    1
    31    15    37    1
    32    16    21   ar
    33    16    17   ar
    34    17    18   ar
    35    17    38    1
    36    18    19   ar
    37    18    39    1
    38    19    24    1
    39    19    20   ar
    40    20    21   ar
    41    20    22    1
    42    21    40    1
    43    22    23    1
    44    23    24    1
    45    23    41    1
    46    23    42    1
    47    43    44    1
    48    43    45    1
