@<TRIPOS>MOLECULE
ZINC03831273
 62 65 0 0 0
SMALL
GASTEIGER

@<TRIPOS>ATOM
      1 C           0.0992    6.2948    0.9272 C.3     1  UNL1       -0.0594
      2 C          -1.0899    5.4046    1.2921 C.3     1  UNL1       -0.0071
      3 H          -2.0240    5.9174    1.0651 H       1  UNL1        0.0330
      4 C          -1.0147    4.0718    0.5094 C.3     1  UNL1       -0.0437
      5 C          -0.4650    3.0638    1.5286 C.3     1  UNL1       -0.0289
      6 H           0.6143    3.2176    1.6296 H       1  UNL1        0.0310
      7 C          -0.7193    1.6223    1.1906 C.3     1  UNL1       -0.0284
      8 H          -0.2453    1.0327    2.0150 H       1  UNL1        0.0308
      9 C          -0.0394    1.1594   -0.0880 C.3     1  UNL1       -0.0143
     10 C          -0.6951    1.7061   -1.3401 C.3     1  UNL1        0.1235
     11 H          -0.6296    0.9390   -2.1299 H       1  UNL1        0.0699
     12 C          -2.1444    2.0563   -1.1723 C.2     1  UNL1       -0.0226
     13 C          -2.7124    2.7350   -2.1898 C.2     1  UNL1       -0.0122
     14 C          -4.1415    3.1010   -2.0798 C.2     1  UNL1        0.1788
     15 O          -4.8482    3.2357   -3.0725 O.2     1  UNL1       -0.2879
     16 C          -4.6798    3.2981   -0.7142 C.2     1  UNL1       -0.0180
     17 C          -4.0706    2.6504    0.2977 C.2     1  UNL1       -0.0701
     18 C          -2.9638    1.6887    0.0167 C.3     1  UNL1        0.0158
     19 C          -2.1857    1.2268    1.2111 C.3     1  UNL1        0.0009
     20 H          -2.1998    0.1189    1.1642 H       1  UNL1        0.0340
     21 C          -2.7756    1.5988    2.5636 C.3     1  UNL1        0.0600
     22 H          -2.2260    1.0389    3.3417 H       1  UNL1        0.0596
     23 C          -2.6079    3.0884    2.8444 C.3     1  UNL1       -0.0178
     24 C          -1.1352    3.4933    2.8547 C.3     1  UNL1        0.0094
     25 C          -1.0377    5.0378    2.7865 C.3     1  UNL1        0.1351
     26 C          -2.1589    5.7063    3.5320 C.2     1  UNL1        0.2024
     27 O          -3.1831    5.9874    2.9571 O.2     1  UNL1       -0.2907
     28 C          -2.0049    6.0256    4.9967 C.3     1  UNL1        0.1530
     29 O          -3.2153    6.6636    5.4828 O.3     1  UNL1       -0.4570
     30 C          -3.2411    7.0144    6.7782 C.2     1  UNL1        0.3043
     31 O          -2.2841    6.7956    7.4826 O.2     1  UNL1       -0.2512
     32 C          -4.4638    7.6811    7.3541 C.3     1  UNL1        0.0332
     33 O           0.2174    5.4625    3.3361 O.3     1  UNL1       -0.3801
     34 C          -0.3888    2.9383    4.0709 C.3     1  UNL1       -0.0562
     35 O          -4.1450    1.2137    2.6617 O.3     1  UNL1       -0.3914
     36 C          -3.6968    0.4142   -0.4400 C.3     1  UNL1       -0.0519
     37 F           0.0050    2.8316   -1.7970 F       1  UNL1       -0.2407
     38 H           0.0659    6.5270   -0.1373 H       1  UNL1        0.0233
     39 H           0.0509    7.2193    1.5025 H       1  UNL1        0.0233
     40 H           1.0280    5.7723    1.1563 H       1  UNL1        0.0233
     41 H          -0.3341    4.1786   -0.3371 H       1  UNL1        0.0272
     42 H          -2.0092    3.7905    0.1684 H       1  UNL1        0.0272
     43 H          -0.0454    0.0591   -0.1260 H       1  UNL1        0.0299
     44 H           1.0182    1.4661   -0.0688 H       1  UNL1        0.0299
     45 H          -2.1262    3.0057   -3.0700 H       1  UNL1        0.0656
     46 H          -5.5651    3.9012   -0.5295 H       1  UNL1        0.0653
     47 H          -4.4409    2.8195    1.3068 H       1  UNL1        0.0582
     48 H          -3.0474    3.2894    3.8270 H       1  UNL1        0.0297
     49 H          -3.1377    3.6638    2.0902 H       1  UNL1        0.0297
     50 H          -1.8454    5.1806    5.5071 H       1  UNL1        0.0779
     51 H          -1.1588    6.6987    5.1348 H       1  UNL1        0.0779
     52 H          -5.2171    7.7943    6.5744 H       1  UNL1        0.0342
     53 H          -4.8655    7.0686    8.1612 H       1  UNL1        0.0342
     54 H          -4.1931    8.6627    7.7430 H       1  UNL1        0.0342
     55 H           0.3646    6.4171    3.2891 H       1  UNL1        0.2108
     56 H           0.6363    3.3090    4.0684 H       1  UNL1        0.0236
     57 H          -0.8898    3.2617    4.9834 H       1  UNL1        0.0236
     58 H          -0.3814    1.8492    4.0269 H       1  UNL1        0.0236
     59 H          -4.5558    1.4338    3.5089 H       1  UNL1        0.2098
     60 H          -2.9661   -0.3531   -0.6961 H       1  UNL1        0.0241
     61 H          -4.3351    0.0534    0.3665 H       1  UNL1        0.0241
     62 H          -4.3080    0.6399   -1.3139 H       1  UNL1        0.0241
@<TRIPOS>BOND
     1     1     2    1
     2     1    38    1
     3     1    39    1
     4     1    40    1
     5     2     3    1
     6     2    25    1
     7     2     4    1
     8     4     5    1
     9     4    41    1
    10     4    42    1
    11     5     6    1
    12     5    24    1
    13     5     7    1
    14     7     8    1
    15     7    19    1
    16     7     9    1
    17     9    10    1
    18     9    43    1
    19     9    44    1
    20    10    11    1
    21    10    12    1
    22    10    37    1
    23    12    18    1
    24    12    13    2
    25    13    14    1
    26    13    45    1
    27    14    15    2
    28    14    16    1
    29    16    17    2
    30    16    46    1
    31    17    18    1
    32    17    47    1
    33    18    19    1
    34    18    36    1
    35    19    20    1
    36    19    21    1
    37    21    22    1
    38    21    23    1
    39    21    35    1
    40    23    24    1
    41    23    48    1
    42    23    49    1
    43    24    25    1
    44    24    34    1
    45    25    26    1
    46    25    33    1
    47    26    27    2
    48    26    28    1
    49    28    29    1
    50    28    50    1
    51    28    51    1
    52    29    30    1
    53    30    31    2
    54    30    32    1
    55    32    52    1
    56    32    53    1
    57    32    54    1
    58    33    55    1
    59    34    56    1
    60    34    57    1
    61    34    58    1
    62    35    59    1
    63    36    60    1
    64    36    61    1
    65    36    62    1
