@<TRIPOS>MOLECULE
ZINC00155525
 38 41 0 0 0
SMALL
GASTEIGER

@<TRIPOS>ATOM
      1 C          -1.6275    3.4798    2.4161 C.3     1  UNL1       -0.0425
      2 C          -0.6957    1.5618    1.2792 C.3     1  UNL1       -0.0275
      3 C          -0.0127    1.0858    0.0080 C.3     1  UNL1        0.0132
      4 C          -0.7117    1.5698   -1.2305 C.ar    1  UNL1       -0.0333
      5 C          -0.2760    1.0875   -2.4590 C.ar    1  UNL1       -0.0579
      6 C          -0.8911    1.4784   -3.6310 C.ar    1  UNL1       -0.0609
      7 C          -1.9508    2.3622   -3.5911 C.ar    1  UNL1       -0.0534
      8 C          -2.3820    2.8638   -2.3680 C.ar    1  UNL1       -0.0053
      9 C          -1.7630    2.4588   -1.1827 C.ar    1  UNL1        0.0116
     10 C          -2.2706    2.9869    0.1334 C.3     1  UNL1        0.0096
     11 H          -3.1012    2.3694    0.4752 H       1  UNL1        0.0907
     12 C          -2.7388    4.4340   -0.0065 C.3     1  UNL1        0.0206
     13 C          -3.7087    4.5676   -1.1489 C.ar    1  UNL1       -0.0303
     14 C          -3.5157    3.8166   -2.3079 C.ar    1  UNL1        0.0310
     15 C          -4.3637    3.9906   -3.3998 C.ar    1  UNL1        0.1664
     16 C          -5.4262    4.8837   -3.3093 C.ar    1  UNL1        0.1589
     17 C          -5.6290    5.6009   -2.1406 C.ar    1  UNL1       -0.0162
     18 C          -4.7710    5.4440   -1.0663 C.ar    1  UNL1       -0.0541
     19 O          -6.2647    5.0535   -4.3665 O.3     1  UNL1       -0.5033
     20 O          -4.1537    3.2918   -4.5468 O.3     1  UNL1       -0.5029
     21 H          -2.4734    2.9015    2.7880 H       1  UNL1        0.0778
     22 H          -0.8076    3.4259    3.1324 H       1  UNL1        0.0778
     23 H          -1.9277    4.5194    2.2850 H       1  UNL1        0.0778
     24 H          -1.5338    0.9023    1.5044 H       1  UNL1        0.0818
     25 H           0.0171    1.5285    2.1032 H       1  UNL1        0.0818
     26 H           0.0021   -0.0041    0.0020 H       1  UNL1        0.0365
     27 H           1.0137    1.4525    0.0002 H       1  UNL1        0.0365
     28 H           0.5546    0.3982   -2.4970 H       1  UNL1        0.0620
     29 H          -0.5434    1.0937   -4.5784 H       1  UNL1        0.0618
     30 H          -2.4425    2.6621   -4.5047 H       1  UNL1        0.0624
     31 H          -1.8764    5.0747   -0.1903 H       1  UNL1        0.0372
     32 H          -3.2267    4.7443    0.9175 H       1  UNL1        0.0372
     33 H          -6.4613    6.2853   -2.0679 H       1  UNL1        0.0655
     34 H          -4.9332    6.0095   -0.1606 H       1  UNL1        0.0622
     35 H          -7.0249    4.4558   -4.3656 H       1  UNL1        0.2923
     36 H          -4.6123    2.4410   -4.5786 H       1  UNL1        0.2923
     37 N          -1.1674    2.9453    1.1165 N.4     1  UNL1        0.2390
     38 H          -0.3920    3.5244    0.7733 H       1  UNL1        0.2037
@<TRIPOS>UNITY_ATOM_ATTR
37 1
charge 1
@<TRIPOS>BOND
     1     1    21    1
     2     1    22    1
     3     1    23    1
     4     1    37    1
     5     2     3    1
     6     2    24    1
     7     2    25    1
     8     2    37    1
     9     3     4    1
    10     3    26    1
    11     3    27    1
    12     4     9   ar
    13     4     5   ar
    14     5     6   ar
    15     5    28    1
    16     6     7   ar
    17     6    29    1
    18     7     8   ar
    19     7    30    1
    20     8    14    1
    21     8     9   ar
    22     9    10    1
    23    10    11    1
    24    10    12    1
    25    10    37    1
    26    12    13    1
    27    12    31    1
    28    12    32    1
    29    13    18   ar
    30    13    14   ar
    31    14    15   ar
    32    15    16   ar
    33    15    20    1
    34    16    17   ar
    35    16    19    1
    36    17    18   ar
    37    17    33    1
    38    18    34    1
    39    19    35    1
    40    20    36    1
    41    37    38    1
