@<TRIPOS>MOLECULE
ZINC03830725
 28 29 0 0 0
SMALL
GASTEIGER

@<TRIPOS>ATOM
      1 C           5.6484    1.9817    1.4527 C.3     1  UNL1       -0.0361
      2 C           4.6253    1.1442    0.6828 C.3     1  UNL1        0.0869
      3 H           4.7933    0.0818    0.8596 H       1  UNL1        0.0621
      4 C           4.7022    1.4567   -0.8280 C.3     1  UNL1        0.1111
      5 H           5.2964    0.7027   -1.3443 H       1  UNL1        0.0646
      6 C           3.2314    1.4020   -1.2981 C.3     1  UNL1        0.1285
      7 H           3.0984    0.6210   -2.0467 H       1  UNL1        0.0665
      8 C           2.4398    1.0629   -0.0156 C.3     1  UNL1        0.1679
      9 H           2.2710   -0.0116    0.0552 H       1  UNL1        0.0867
     10 O           3.2828    1.5118    1.0678 O.3     1  UNL1       -0.3482
     11 N           1.1630    1.7809    0.0005 N.ar    1  UNL1       -0.2687
     12 C          -0.0126    1.0758    0.0080 C.ar    1  UNL1        0.0525
     13 C          -1.1893    1.7388    0.0171 C.ar    1  UNL1        0.2036
     14 C          -1.1816    3.1561    0.0304 C.ar    1  UNL1        0.2894
     15 O          -2.2297    3.7762    0.0437 O.2     1  UNL1       -0.2646
     16 N          -0.0033    3.8116    0.0222 N.ar    1  UNL1       -0.2725
     17 H           0.0100    4.8115    0.0271 H       1  UNL1        0.1735
     18 C           1.1549    3.1263    0.0074 C.ar    1  UNL1        0.3315
     19 O           2.2093    3.7318    0.0006 O.2     1  UNL1       -0.2464
     20 F          -2.3575    1.0603    0.0185 F       1  UNL1       -0.1983
     21 O           2.8242    2.6696   -1.8173 O.3     1  UNL1       -0.3847
     22 O           5.2483    2.7597   -1.0426 O.3     1  UNL1       -0.3865
     23 H           5.5435    1.7916    2.5209 H       1  UNL1        0.0255
     24 H           6.6545    1.7107    1.1326 H       1  UNL1        0.0255
     25 H           5.4761    3.0393    1.2532 H       1  UNL1        0.0255
     26 H           0.0021   -0.0041    0.0020 H       1  UNL1        0.0842
     27 H           3.2896    2.9324   -2.6232 H       1  UNL1        0.2101
     28 H           6.1503    2.8677   -0.7111 H       1  UNL1        0.2100
@<TRIPOS>BOND
     1     1     2    1
     2     1    23    1
     3     1    24    1
     4     1    25    1
     5     2     3    1
     6     2    10    1
     7     2     4    1
     8     4     5    1
     9     4     6    1
    10     4    22    1
    11     6     7    1
    12     6     8    1
    13     6    21    1
    14     8     9    1
    15     8    10    1
    16     8    11    1
    17    11    18   ar
    18    11    12   ar
    19    12    13   ar
    20    12    26    1
    21    13    14   ar
    22    13    20    1
    23    14    15    2
    24    14    16   ar
    25    16    17    1
    26    16    18   ar
    27    18    19    2
    28    21    27    1
    29    22    28    1
