@<TRIPOS>MOLECULE
ZINC00000926
 28 28 0 0 0
SMALL
GASTEIGER

@<TRIPOS>ATOM
      1 C           1.3286   -0.9725   -0.7455 C.3     1  UNL1        0.0125
      2 C           0.0222   -0.2346   -0.6045 C.2     1  UNL1        0.2141
      3 O          -0.9993   -0.7210   -1.0415 O.2     1  UNL1       -0.2758
      4 N          -0.0111    0.9658    0.0074 N.am    1  UNL1       -0.2857
      5 C          -1.2047    1.6913    0.0586 C.ar    1  UNL1        0.0334
      6 C          -1.1761    3.0795   -0.0131 C.ar    1  UNL1       -0.0399
      7 C          -2.3508    3.7977    0.0314 C.ar    1  UNL1       -0.0513
      8 C          -3.5716    3.1297    0.1602 C.ar    1  UNL1       -0.0053
      9 C          -3.5959    1.7345    0.2377 C.ar    1  UNL1       -0.0513
     10 C          -2.4172    1.0231    0.1869 C.ar    1  UNL1       -0.0399
     11 C          -4.8306    3.8948    0.2138 C.2     1  UNL1        0.0528
     12 N          -4.8061    5.1905    0.1417 N.2     1  UNL1       -0.1885
     13 N          -6.0026    5.9176    0.1926 N.am    1  UNL1       -0.2186
     14 C          -5.9773    7.2630    0.1177 C.2     1  UNL1        0.1473
     15 S          -7.4393    8.1515    0.1799 S.2     1  UNL1       -0.0174
     16 N          -4.8009    7.9090   -0.0062 N.am    1  UNL1       -0.3394
     17 H           1.4787   -1.6146    0.1224 H       1  UNL1        0.0323
     18 H           1.3059   -1.5820   -1.6489 H       1  UNL1        0.0323
     19 H           2.1460   -0.2545   -0.8120 H       1  UNL1        0.0323
     20 H           0.7924    1.3246    0.4156 H       1  UNL1        0.1548
     21 H          -0.2319    3.5952   -0.1079 H       1  UNL1        0.0636
     22 H          -2.3281    4.8758   -0.0285 H       1  UNL1        0.0624
     23 H          -4.5373    1.2148    0.3377 H       1  UNL1        0.0624
     24 H          -2.4352   -0.0552    0.2463 H       1  UNL1        0.0636
     25 H          -5.7732    3.3771    0.3131 H       1  UNL1        0.0851
     26 H          -6.8493    5.4526    0.2817 H       1  UNL1        0.1762
     27 H          -3.9725    7.4056   -0.0414 H       1  UNL1        0.1440
     28 H          -4.7826    8.8773   -0.0601 H       1  UNL1        0.1440
@<TRIPOS>BOND
     1     1     2    1
     2     1    17    1
     3     1    18    1
     4     1    19    1
     5     2     3    2
     6     2     4   am
     7     4     5    1
     8     4    20    1
     9     5    10   ar
    10     5     6   ar
    11     6     7   ar
    12     6    21    1
    13     7     8   ar
    14     7    22    1
    15     8     9   ar
    16     8    11    1
    17     9    10   ar
    18     9    23    1
    19    10    24    1
    20    11    12    2
    21    11    25    1
    22    12    13    1
    23    13    14    1
    24    13    26    1
    25    14    15    2
    26    14    16    1
    27    16    27    1
    28    16    28    1
