@<TRIPOS>MOLECULE
ZINC03830459
 64 66 0 0 0
SMALL
GASTEIGER

@<TRIPOS>ATOM
      1 C         -15.5720    2.7549   -0.5493 C.3     1  UNL1       -0.0279
      2 C         -15.8175    2.2487   -1.9722 C.3     1  UNL1        0.1009
      3 C         -17.2150    2.6712   -2.4298 C.3     1  UNL1       -0.0279
      4 O         -14.8235    2.8158   -2.8658 O.3     1  UNL1       -0.4310
      5 C         -13.6847    2.1193   -3.0335 C.2     1  UNL1        0.5133
      6 O         -13.5252    1.0667   -2.4494 O.2     1  UNL1       -0.2027
      7 O         -12.7227    2.5891   -3.8481 O.3     1  UNL1       -0.3941
      8 C         -11.5663    1.7375   -4.0621 C.3     1  UNL1        0.2502
      9 H         -11.8977    0.7428   -4.3600 H       1  UNL1        0.1205
     10 C         -10.6902    2.3348   -5.1652 C.3     1  UNL1        0.0102
     11 O         -10.7997    1.6442   -2.8325 O.3     1  UNL1       -0.4205
     12 C         -10.2853    2.7900   -2.3437 C.2     1  UNL1        0.3567
     13 O         -10.5506    3.8502   -2.8747 O.2     1  UNL1       -0.2434
     14 C          -9.4009    2.7570   -1.1649 C.2     1  UNL1        0.1244
     15 C          -9.9181    2.8669    0.0476 C.2     1  UNL1       -0.0060
     16 C          -9.2185    2.8085    1.3664 C.3     1  UNL1        0.0210
     17 S          -7.4325    3.1153    1.2002 S.3     1  UNL1       -0.1311
     18 C          -7.0382    2.1519   -0.2985 C.3     1  UNL1        0.1042
     19 H          -6.9476    1.0756   -0.1519 H       1  UNL1        0.0644
     20 N          -8.0093    2.6084   -1.3376 N.am    1  UNL1       -0.2489
     21 C          -7.1068    2.9279   -2.2783 C.2     1  UNL1        0.2440
     22 O          -7.1449    3.2101   -3.4573 O.2     1  UNL1       -0.2731
     23 C          -6.0217    2.7844   -1.2345 C.3     1  UNL1        0.1286
     24 H          -5.6397    3.7404   -0.8766 H       1  UNL1        0.0622
     25 N          -4.9529    1.8655   -1.6339 N.am    1  UNL1       -0.2963
     26 C          -3.7604    2.3513   -2.0320 C.2     1  UNL1        0.2684
     27 O          -3.5718    3.5514   -2.0597 O.2     1  UNL1       -0.2683
     28 C          -2.6792    1.4219   -2.4359 C.2     1  UNL1        0.1897
     29 N          -2.8814    0.1352   -2.4062 N.2     1  UNL1       -0.0779
     30 O          -1.8121   -0.7558   -2.6668 O.2     1  UNL1       -0.3964
     31 C          -2.1763   -2.1360   -2.6007 C.3     1  UNL1        0.1072
     32 C          -1.3709    1.9548   -2.8727 C.ar    1  UNL1        0.1067
     33 C          -0.3046    1.1143   -3.0514 C.ar    1  UNL1        0.0067
     34 S           0.9523    2.2754   -3.5694 S.2     1  UNL1       -0.0604
     35 C          -0.0545    3.7498   -3.4895 C.ar    1  UNL1        0.1562
     36 N          -1.2134    3.2594   -3.0927 N.ar    1  UNL1       -0.2233
     37 N           0.2906    5.0612   -3.7705 N.pl3   1  UNL1       -0.3375
     38 C         -11.4089    3.0790    0.1063 C.3     1  UNL1        0.0714
     39 O         -11.6875    4.3312    0.7360 O.3     1  UNL1       -0.3786
     40 C         -13.0794    4.5825    0.9394 C.3     1  UNL1        0.0369
     41 H         -14.5765    2.4539   -0.2233 H       1  UNL1        0.0265
     42 H         -15.6466    3.8422   -0.5326 H       1  UNL1        0.0265
     43 H         -16.3182    2.3292    0.1215 H       1  UNL1        0.0265
     44 H         -15.7430    1.1614   -1.9889 H       1  UNL1        0.0729
     45 H         -17.3898    2.3106   -3.4435 H       1  UNL1        0.0265
     46 H         -17.9612    2.2455   -1.7589 H       1  UNL1        0.0265
     47 H         -17.2895    3.7586   -2.4131 H       1  UNL1        0.0265
     48 H         -11.2846    2.4681   -6.0690 H       1  UNL1        0.0301
     49 H         -10.3032    3.3002   -4.8390 H       1  UNL1        0.0301
     50 H          -9.8586    1.6615   -5.3732 H       1  UNL1        0.0301
     51 H          -9.3698    1.8222    1.8051 H       1  UNL1        0.0424
     52 H          -9.6475    3.5598    2.0294 H       1  UNL1        0.0424
     53 H          -5.1034    0.9075   -1.6117 H       1  UNL1        0.1499
     54 H          -2.9534   -2.3424   -3.3365 H       1  UNL1        0.0687
     55 H          -1.3028   -2.7528   -2.8121 H       1  UNL1        0.0687
     56 H          -2.5504   -2.3657   -1.6030 H       1  UNL1        0.0687
     57 H          -0.2416    0.0442   -2.9201 H       1  UNL1        0.0716
     58 H           1.1927    5.2748   -4.0559 H       1  UNL1        0.1442
     59 H          -0.3698    5.7661   -3.6819 H       1  UNL1        0.1442
     60 H         -11.8156    3.0824   -0.9049 H       1  UNL1        0.0607
     61 H         -11.8681    2.2738    0.6799 H       1  UNL1        0.0607
     62 H         -13.6058    4.5024   -0.0117 H       1  UNL1        0.0524
     63 H         -13.4821    3.8513    1.6403 H       1  UNL1        0.0524
     64 H         -13.2120    5.5857    1.3447 H       1  UNL1        0.0524
@<TRIPOS>BOND
     1     1     2    1
     2     1    41    1
     3     1    42    1
     4     1    43    1
     5     2     3    1
     6     2     4    1
     7     2    44    1
     8     3    45    1
     9     3    46    1
    10     3    47    1
    11     4     5    1
    12     5     6    2
    13     5     7    1
    14     7     8    1
    15     8     9    1
    16     8    10    1
    17     8    11    1
    18    10    48    1
    19    10    49    1
    20    10    50    1
    21    11    12    1
    22    12    13    2
    23    12    14    1
    24    14    20    1
    25    14    15    2
    26    15    16    1
    27    15    38    1
    28    16    17    1
    29    16    51    1
    30    16    52    1
    31    17    18    1
    32    18    19    1
    33    18    23    1
    34    18    20    1
    35    20    21   am
    36    21    22    2
    37    21    23    1
    38    23    24    1
    39    23    25    1
    40    25    26   am
    41    25    53    1
    42    26    27    2
    43    26    28    1
    44    28    29    2
    45    28    32    1
    46    29    30    1
    47    30    31    1
    48    31    54    1
    49    31    55    1
    50    31    56    1
    51    32    36   ar
    52    32    33   ar
    53    33    34   ar
    54    33    57    1
    55    34    35   ar
    56    35    36   ar
    57    35    37    1
    58    37    58    1
    59    37    59    1
    60    38    39    1
    61    38    60    1
    62    38    61    1
    63    39    40    1
    64    40    62    1
    65    40    63    1
    66    40    64    1
