@<TRIPOS>MOLECULE
ZINC01530657
 55 57 0 0 0
SMALL
GASTEIGER

@<TRIPOS>ATOM
      1 C          -0.9582    7.5435    2.8972 C.ar    1  UNL1       -0.0617
      2 C          -2.0875    6.8908    3.3547 C.ar    1  UNL1       -0.0613
      3 C          -2.1681    5.5129    3.2783 C.ar    1  UNL1       -0.0529
      4 C          -1.1194    4.7878    2.7440 C.ar    1  UNL1        0.0048
      5 C           0.0121    5.4402    2.2913 C.ar    1  UNL1       -0.0529
      6 C           0.0909    6.8184    2.3637 C.ar    1  UNL1       -0.0613
      7 C          -1.2072    3.2857    2.6607 C.3     1  UNL1        0.0313
      8 H          -2.2514    2.9788    2.7214 H       1  UNL1        0.0958
      9 C          -0.4365    2.6734    3.8017 C.ar    1  UNL1        0.0049
     10 C           0.9388    2.5576    3.7232 C.ar    1  UNL1       -0.0515
     11 C           1.6468    2.0013    4.7718 C.ar    1  UNL1       -0.0429
     12 C           0.9777    1.5498    5.8955 C.ar    1  UNL1        0.0410
     13 C          -0.3993    1.6608    5.9711 C.ar    1  UNL1       -0.0429
     14 C          -1.1056    2.2225    4.9243 C.ar    1  UNL1       -0.0515
     15 CL          1.8655    0.8440    7.2097 Cl      1  UNL1       -0.0835
     16 C          -0.6227    1.3644    1.3072 C.3     1  UNL1        0.0104
     17 C           0.0491    0.9321    0.0017 C.3     1  UNL1        0.0096
     18 C          -0.6928    2.9779   -1.0580 C.3     1  UNL1        0.0096
     19 C          -1.3650    3.4102    0.2473 C.3     1  UNL1        0.0104
     20 C          -0.1087    1.0567   -2.4117 C.3     1  UNL1       -0.0075
     21 C           1.1978    1.8058   -2.6815 C.3     1  UNL1        0.0876
     22 O           2.1725    1.4300   -1.7064 O.3     1  UNL1       -0.3723
     23 C           3.4365    2.0765   -1.8689 C.3     1  UNL1        0.0710
     24 C           4.3965    1.6013   -0.7765 C.3     1  UNL1        0.0676
     25 O           4.6602    0.2073   -0.9474 O.3     1  UNL1       -0.3927
     26 H          -0.8955    8.6201    2.9562 H       1  UNL1        0.0618
     27 H          -2.9071    7.4573    3.7714 H       1  UNL1        0.0618
     28 H          -3.0504    5.0029    3.6357 H       1  UNL1        0.0622
     29 H           0.8333    4.8733    1.8779 H       1  UNL1        0.0622
     30 H           0.9731    7.3284    2.0060 H       1  UNL1        0.0618
     31 H           1.4606    2.9060    2.8441 H       1  UNL1        0.0623
     32 H           2.7217    1.9149    4.7121 H       1  UNL1        0.0632
     33 H          -0.9222    1.3083    6.8479 H       1  UNL1        0.0632
     34 H          -2.1805    2.3088    4.9831 H       1  UNL1        0.0623
     35 H          -1.6458    0.9893    1.3313 H       1  UNL1        0.0868
     36 H          -0.0669    0.9603    2.1533 H       1  UNL1        0.0868
     37 H           0.0345   -0.1553   -0.0720 H       1  UNL1        0.0868
     38 H           1.0808    1.2836   -0.0101 H       1  UNL1        0.0868
     39 H           0.3304    3.3530   -1.0816 H       1  UNL1        0.0868
     40 H          -1.2479    3.3820   -1.9045 H       1  UNL1        0.0868
     41 H          -1.3504    4.4976    0.3210 H       1  UNL1        0.0868
     42 H          -2.3966    3.0584    0.2589 H       1  UNL1        0.0868
     43 H           0.0902   -0.0138   -2.3603 H       1  UNL1        0.0837
     44 H          -0.8152    1.2566   -3.2172 H       1  UNL1        0.0837
     45 H           1.5630    1.5525   -3.6767 H       1  UNL1        0.0613
     46 H           1.0198    2.8796   -2.6221 H       1  UNL1        0.0613
     47 H           3.8481    1.8288   -2.8473 H       1  UNL1        0.0583
     48 H           3.3049    3.1558   -1.7928 H       1  UNL1        0.0583
     49 H           5.3305    2.1590   -0.8459 H       1  UNL1        0.0580
     50 H           3.9454    1.7685    0.2016 H       1  UNL1        0.0580
     51 H           5.2631   -0.1627   -0.2881 H       1  UNL1        0.2095
     52 N          -0.6103    2.8406    1.3834 N.4     1  UNL1        0.2514
     53 H           0.3613    3.1691    1.3368 H       1  UNL1        0.2048
     54 N          -0.7056    1.5020   -1.1344 N.4     1  UNL1        0.2443
     55 H          -1.6773    1.1737   -1.0879 H       1  UNL1        0.2038
@<TRIPOS>UNITY_ATOM_ATTR
52 1
charge 1
54 1
charge 1
@<TRIPOS>BOND
     1     1     6   ar
     2     1     2   ar
     3     1    26    1
     4     2     3   ar
     5     2    27    1
     6     3     4   ar
     7     3    28    1
     8     4     5   ar
     9     4     7    1
    10     5     6   ar
    11     5    29    1
    12     6    30    1
    13     7     8    1
    14     7     9    1
    15     7    52    1
    16     9    14   ar
    17     9    10   ar
    18    10    11   ar
    19    10    31    1
    20    11    12   ar
    21    11    32    1
    22    12    13   ar
    23    12    15    1
    24    13    14   ar
    25    13    33    1
    26    14    34    1
    27    16    17    1
    28    16    35    1
    29    16    36    1
    30    16    52    1
    31    17    37    1
    32    17    38    1
    33    17    54    1
    34    18    19    1
    35    18    39    1
    36    18    40    1
    37    18    54    1
    38    19    41    1
    39    19    42    1
    40    19    52    1
    41    20    21    1
    42    20    43    1
    43    20    44    1
    44    20    54    1
    45    21    22    1
    46    21    45    1
    47    21    46    1
    48    22    23    1
    49    23    24    1
    50    23    47    1
    51    23    48    1
    52    24    25    1
    53    24    49    1
    54    24    50    1
    55    25    51    1
    56    52    53    1
    57    54    55    1
