@<TRIPOS>MOLECULE
ZINC01530961
 25 24 0 0 0
SMALL
GASTEIGER

@<TRIPOS>ATOM
      1 C          -0.1165    1.3771   -2.4849 C.3     1  UNL1       -0.0067
      2 C          -0.7578    1.9716   -1.2294 C.3     1  UNL1        0.0087
      3 C          -0.0178    1.4648    0.0101 C.3     1  UNL1        0.0881
      4 C           1.4175    1.9944   -0.0008 C.3     1  UNL1        0.2885
      5 F           1.3986    3.3932    0.0069 F       1  UNL1       -0.2023
      6 F           2.0942    1.5309    1.1326 F       1  UNL1       -0.2023
      7 C          -0.7232    1.9508    1.2500 C.2     1  UNL1        0.0982
      8 O          -1.3990    2.9515    1.2075 O.co2   1  UNL1       -0.5438
      9 C          -0.8565    1.8839   -3.7244 C.3     1  UNL1       -0.0352
     10 H           0.9292    1.6799   -2.5369 H       1  UNL1        0.0319
     11 H          -0.1783    0.2896   -2.4442 H       1  UNL1        0.0319
     12 H          -1.8036    1.6688   -1.1774 H       1  UNL1        0.0330
     13 H          -0.6961    3.0591   -1.2701 H       1  UNL1        0.0330
     14 H           1.9277    1.6428   -0.8976 H       1  UNL1        0.1086
     15 H          -0.9349   -0.3784    0.0090 H       1  UNL1        0.2005
     16 H           0.5256   -0.3543   -0.7863 H       1  UNL1        0.2005
     17 H          -1.9023    1.5811   -3.6724 H       1  UNL1        0.0813
     18 H          -0.7948    2.9714   -3.7651 H       1  UNL1        0.0813
     19 H          -0.2276    0.3051   -4.8864 H       1  UNL1        0.1994
     20 H          -0.7121    1.6330   -5.7627 H       1  UNL1        0.1994
     21 O          -0.6007    1.2720    2.4015 O.co2   1  UNL1       -0.5438
     22 N           0.0141   -0.0084    0.0239 N.4     1  UNL1        0.2312
     23 H           0.4848   -0.3278    0.8787 H       1  UNL1        0.2005
     24 N          -0.2175    1.3229   -4.9279 N.4     1  UNL1        0.2185
     25 H           0.7557    1.6466   -4.9753 H       1  UNL1        0.1994
@<TRIPOS>UNITY_ATOM_ATTR
21 1
charge -1
22 1
charge 1
24 1
charge 1
@<TRIPOS>BOND
     1     1     2    1
     2     1     9    1
     3     1    10    1
     4     1    11    1
     5     2     3    1
     6     2    12    1
     7     2    13    1
     8     3     4    1
     9     3     7    1
    10     3    22    1
    11     4     5    1
    12     4     6    1
    13     4    14    1
    14     7     8   ar
    15     7    21   ar
    16     9    17    1
    17     9    18    1
    18     9    24    1
    19    15    22    1
    20    16    22    1
    21    19    24    1
    22    20    24    1
    23    22    23    1
    24    24    25    1
