@<TRIPOS>MOLECULE
ZINC11592879
 59 62 0 0 0
SMALL
GASTEIGER

@<TRIPOS>ATOM
      1 C          -9.7365    0.3143   -4.7464 C.3     1  UNL1        0.0332
      2 C          -9.0210   -0.5724   -3.7601 C.2     1  UNL1        0.3043
      3 O          -9.6499   -1.1765   -2.9238 O.2     1  UNL1       -0.2512
      4 O          -7.6849   -0.6911   -3.8107 O.3     1  UNL1       -0.4570
      5 C          -7.0629   -1.5623   -2.8297 C.3     1  UNL1        0.1530
      6 C          -5.5706   -1.5703   -3.0395 C.2     1  UNL1        0.2022
      7 O          -5.0817   -0.9099   -3.9245 O.2     1  UNL1       -0.2907
      8 C          -4.6899   -2.4010   -2.1464 C.3     1  UNL1        0.1326
      9 C          -4.2865   -3.7152   -2.8579 C.3     1  UNL1       -0.0161
     10 C          -2.7603   -3.8846   -2.6448 C.3     1  UNL1       -0.0463
     11 C          -2.4218   -2.8618   -1.5477 C.3     1  UNL1       -0.0292
     12 H          -2.6807   -3.2756   -0.5646 H       1  UNL1        0.0310
     13 C          -3.3550   -1.6810   -1.8977 C.3     1  UNL1        0.0092
     14 C          -3.3652   -0.6910   -0.7575 C.3     1  UNL1       -0.0178
     15 C          -2.1025   -0.8710    0.1070 C.3     1  UNL1        0.0600
     16 H          -2.2644   -1.7212    0.7722 H       1  UNL1        0.0596
     17 C          -0.8769   -1.0971   -0.7614 C.3     1  UNL1        0.0007
     18 H          -0.9143   -0.3002   -1.5250 H       1  UNL1        0.0340
     19 C          -0.9782   -2.3945   -1.5502 C.3     1  UNL1       -0.0311
     20 H          -0.6412   -2.2211   -2.5741 H       1  UNL1        0.0308
     21 C          -0.1011   -3.4867   -0.9333 C.3     1  UNL1       -0.0458
     22 C           1.3629   -3.0913   -1.1196 C.3     1  UNL1       -0.0302
     23 C           1.5754   -1.6880   -0.5960 C.2     1  UNL1       -0.0559
     24 C           2.8331   -1.2299   -0.6352 C.2     1  UNL1       -0.0149
     25 C           3.1309    0.1513   -0.2086 C.2     1  UNL1        0.1787
     26 O           4.2852    0.5177   -0.0042 O.2     1  UNL1       -0.2879
     27 C           1.9945    1.0778   -0.0338 C.2     1  UNL1       -0.0180
     28 C           0.7515    0.5988    0.0001 C.2     1  UNL1       -0.0701
     29 C           0.4427   -0.8695   -0.0770 C.3     1  UNL1        0.0131
     30 C           0.2845   -1.3186    1.3802 C.3     1  UNL1       -0.0520
     31 O          -1.9596    0.3192    0.8925 O.3     1  UNL1       -0.3914
     32 C          -2.9265   -0.9925   -3.1969 C.3     1  UNL1       -0.0562
     33 O          -5.3453   -2.6877   -0.9139 O.3     1  UNL1       -0.3804
     34 H          -9.5416   -0.0377   -5.7595 H       1  UNL1        0.0342
     35 H         -10.8085    0.2839   -4.5512 H       1  UNL1        0.0342
     36 H          -9.3771    1.3380   -4.6420 H       1  UNL1        0.0342
     37 H          -7.4193   -2.4907   -2.9348 H       1  UNL1        0.0779
     38 H          -7.2868   -1.1985   -1.8269 H       1  UNL1        0.0779
     39 H          -4.5092   -3.6460   -3.9229 H       1  UNL1        0.0297
     40 H          -4.8212   -4.5558   -2.4186 H       1  UNL1        0.0297
     41 H          -2.2126   -3.6725   -3.5606 H       1  UNL1        0.0269
     42 H          -2.5359   -4.8975   -2.3008 H       1  UNL1        0.0269
     43 H          -4.2465   -0.8369   -0.1293 H       1  UNL1        0.0297
     44 H          -3.3813    0.3304   -1.1510 H       1  UNL1        0.0297
     45 H          -0.3373   -3.6128    0.1205 H       1  UNL1        0.0271
     46 H          -0.2910   -4.4337   -1.4507 H       1  UNL1        0.0271
     47 H           2.0065   -3.7780   -0.5684 H       1  UNL1        0.0310
     48 H           1.6229   -3.1193   -2.1778 H       1  UNL1        0.0310
     49 H           3.6375   -1.8843   -0.9882 H       1  UNL1        0.0655
     50 H           2.1704    2.1525    0.0664 H       1  UNL1        0.0653
     51 H          -0.0743    1.3113    0.0780 H       1  UNL1        0.0582
     52 H          -0.5276   -0.7606    1.8462 H       1  UNL1        0.0241
     53 H           0.0568   -2.3841    1.4093 H       1  UNL1        0.0241
     54 H           1.2119   -1.1303    1.9212 H       1  UNL1        0.0241
     55 H          -2.7170    0.5066    1.4638 H       1  UNL1        0.2098
     56 H          -1.8614   -0.7653   -3.1535 H       1  UNL1        0.0236
     57 H          -3.1228   -1.6542   -4.0406 H       1  UNL1        0.0236
     58 H          -3.4904   -0.0681   -3.3213 H       1  UNL1        0.0236
     59 H          -6.1928   -3.1421   -1.0155 H       1  UNL1        0.2108
@<TRIPOS>BOND
     1     1     2    1
     2     1    34    1
     3     1    35    1
     4     1    36    1
     5     2     3    2
     6     2     4    1
     7     4     5    1
     8     5     6    1
     9     5    37    1
    10     5    38    1
    11     6     7    2
    12     6     8    1
    13     8    13    1
    14     8     9    1
    15     8    33    1
    16     9    10    1
    17     9    39    1
    18     9    40    1
    19    10    11    1
    20    10    41    1
    21    10    42    1
    22    11    12    1
    23    11    19    1
    24    11    13    1
    25    13    14    1
    26    13    32    1
    27    14    15    1
    28    14    43    1
    29    14    44    1
    30    15    16    1
    31    15    17    1
    32    15    31    1
    33    17    18    1
    34    17    29    1
    35    17    19    1
    36    19    20    1
    37    19    21    1
    38    21    22    1
    39    21    45    1
    40    21    46    1
    41    22    23    1
    42    22    47    1
    43    22    48    1
    44    23    29    1
    45    23    24    2
    46    24    25    1
    47    24    49    1
    48    25    26    2
    49    25    27    1
    50    27    28    2
    51    27    50    1
    52    28    29    1
    53    28    51    1
    54    29    30    1
    55    30    52    1
    56    30    53    1
    57    30    54    1
    58    31    55    1
    59    32    56    1
    60    32    57    1
    61    32    58    1
    62    33    59    1
