@<TRIPOS>MOLECULE
ZINC01530718
 45 45 0 0 0
SMALL
GASTEIGER

@<TRIPOS>ATOM
      1 C           4.1021    1.4352    2.5687 C.3     1  UNL1       -0.0219
      2 C           3.5536    1.5205    1.1430 C.3     1  UNL1       -0.0283
      3 C           4.4114    0.6590    0.2141 C.3     1  UNL1       -0.0219
      4 C           1.4227    1.6154   -0.0028 C.3     1  UNL1       -0.0035
      5 C          -0.0127    1.0858    0.0080 C.3     1  UNL1        0.1285
      6 H           0.0021   -0.0041    0.0020 H       1  UNL1        0.0681
      7 C          -0.7527    1.5927   -1.2315 C.3     1  UNL1        0.1204
      8 O          -2.0545    1.0054   -1.2824 O.3     1  UNL1       -0.4892
      9 C          -2.8477    1.3533   -2.3297 C.ar    1  UNL1        0.1206
     10 C          -2.3848    2.2459   -3.2855 C.ar    1  UNL1       -0.0197
     11 C          -3.1908    2.5931   -4.3524 C.ar    1  UNL1       -0.0550
     12 C          -4.4624    2.0613   -4.4615 C.ar    1  UNL1       -0.0450
     13 C          -4.9282    1.1758   -3.5071 C.ar    1  UNL1       -0.0550
     14 C          -4.1238    0.8207   -2.4416 C.ar    1  UNL1       -0.0197
     15 C          -5.3420    2.4470   -5.6228 C.3     1  UNL1       -0.0042
     16 C          -6.1671    3.6803   -5.2500 C.3     1  UNL1        0.0513
     17 O          -7.0011    4.0460   -6.3512 O.3     1  UNL1       -0.3826
     18 C          -7.8177    5.1929   -6.1061 C.3     1  UNL1        0.0365
     19 O          -0.6816    1.5467    1.1837 O.3     1  UNL1       -0.3831
     20 H           4.0758    0.3992    2.9067 H       1  UNL1        0.0284
     21 H           5.1303    1.7965    2.5847 H       1  UNL1        0.0284
     22 H           3.4910    2.0489    3.2305 H       1  UNL1        0.0284
     23 H           3.5799    2.5565    0.8050 H       1  UNL1        0.0845
     24 H           4.3851   -0.3769    0.5521 H       1  UNL1        0.0284
     25 H           4.0206    0.7199   -0.8016 H       1  UNL1        0.0284
     26 H           5.4396    1.0204    0.2300 H       1  UNL1        0.0284
     27 H           1.9050    1.3387   -0.9404 H       1  UNL1        0.0841
     28 H           1.4101    2.7011    0.0927 H       1  UNL1        0.0841
     29 H          -0.8452    2.6775   -1.1811 H       1  UNL1        0.0725
     30 H          -0.1944    1.3168   -2.1261 H       1  UNL1        0.0725
     31 H          -1.3934    2.6653   -3.1981 H       1  UNL1        0.0654
     32 H          -2.8289    3.2840   -5.0995 H       1  UNL1        0.0621
     33 H          -5.9216    0.7613   -3.5949 H       1  UNL1        0.0621
     34 H          -4.4880    0.1288   -1.6966 H       1  UNL1        0.0654
     35 H          -4.7209    2.6736   -6.4894 H       1  UNL1        0.0335
     36 H          -6.0114    1.6206   -5.8617 H       1  UNL1        0.0335
     37 H          -6.7881    3.4536   -4.3834 H       1  UNL1        0.0563
     38 H          -5.4976    4.5067   -5.0111 H       1  UNL1        0.0563
     39 H          -8.4730    4.9976   -5.2573 H       1  UNL1        0.0523
     40 H          -7.1825    6.0506   -5.8850 H       1  UNL1        0.0523
     41 H          -8.4204    5.4051   -6.9892 H       1  UNL1        0.0523
     42 H          -0.7322    2.5097    1.2555 H       1  UNL1        0.2102
     43 N           2.1637    1.0266    1.1286 N.4     1  UNL1        0.2307
     44 H           1.7024    1.2875    2.0080 H       1  UNL1        0.2017
     45 H           2.1685    0.0042    1.0349 H       1  UNL1        0.2017
@<TRIPOS>UNITY_ATOM_ATTR
43 1
charge 1
@<TRIPOS>BOND
     1     1     2    1
     2     1    20    1
     3     1    21    1
     4     1    22    1
     5     2     3    1
     6     2    23    1
     7     2    43    1
     8     3    24    1
     9     3    25    1
    10     3    26    1
    11     4     5    1
    12     4    27    1
    13     4    28    1
    14     4    43    1
    15     5     6    1
    16     5     7    1
    17     5    19    1
    18     7     8    1
    19     7    29    1
    20     7    30    1
    21     8     9    1
    22     9    14   ar
    23     9    10   ar
    24    10    11   ar
    25    10    31    1
    26    11    12   ar
    27    11    32    1
    28    12    13   ar
    29    12    15    1
    30    13    14   ar
    31    13    33    1
    32    14    34    1
    33    15    16    1
    34    15    35    1
    35    15    36    1
    36    16    17    1
    37    16    37    1
    38    16    38    1
    39    17    18    1
    40    18    39    1
    41    18    40    1
    42    18    41    1
    43    19    42    1
    44    43    44    1
    45    43    45    1
