@<TRIPOS>MOLECULE
ZINC03830952
 51 51 0 0 0
SMALL
GASTEIGER

@<TRIPOS>ATOM
      1 C          -3.4950   10.2496    6.0039 C.3     1  UNL1       -0.0306
      2 C          -2.7920    9.6810    4.7696 C.3     1  UNL1        0.0896
      3 O          -2.8097    8.2303    4.8278 O.3     1  UNL1       -0.4649
      4 C          -2.2290    7.5725    3.8120 C.2     1  UNL1        0.3071
      5 O          -1.7227    8.1886    2.9042 O.2     1  UNL1       -0.2509
      6 C          -2.2086    6.0657    3.8037 C.3     1  UNL1        0.0449
      7 C          -1.4924    5.5723    2.5449 C.3     1  UNL1       -0.0430
      8 C          -1.4717    4.0424    2.5364 C.3     1  UNL1       -0.0526
      9 C          -0.7556    3.5490    1.2776 C.3     1  UNL1       -0.0530
     10 C          -0.7348    2.0192    1.2692 C.3     1  UNL1       -0.0531
     11 C          -0.0187    1.5258    0.0104 C.3     1  UNL1       -0.0530
     12 C           0.0021   -0.0041    0.0020 C.3     1  UNL1       -0.0525
     13 C           0.7182   -0.4975   -1.2568 C.3     1  UNL1       -0.0465
     14 C           0.7390   -2.0273   -1.2652 C.3     1  UNL1       -0.0187
     15 H          -0.2789   -2.4050   -1.1679 H       1  UNL1        0.0346
     16 C           1.5844   -2.5324   -0.0943 C.3     1  UNL1       -0.0584
     17 C           1.3339   -2.5145   -2.5613 C.ar    1  UNL1       -0.0436
     18 C           2.6236   -2.1563   -2.9077 C.ar    1  UNL1       -0.0583
     19 C           3.1712   -2.6069   -4.0941 C.ar    1  UNL1       -0.0605
     20 C           2.4258   -3.4073   -4.9396 C.ar    1  UNL1       -0.0486
     21 C           1.1341   -3.7613   -4.5959 C.ar    1  UNL1        0.0136
     22 C           0.5882   -3.3146   -3.4061 C.ar    1  UNL1       -0.0452
     23 I           0.0039   -4.9736   -5.8773 I       1  UNL1       -0.0438
     24 H          -4.5270    9.8994    6.0277 H       1  UNL1        0.0262
     25 H          -2.9772    9.9156    6.9030 H       1  UNL1        0.0262
     26 H          -3.4817   11.3386    5.9602 H       1  UNL1        0.0262
     27 H          -1.7600   10.0311    4.7458 H       1  UNL1        0.0694
     28 H          -3.3098   10.0149    3.8705 H       1  UNL1        0.0694
     29 H          -3.2312    5.6884    3.8114 H       1  UNL1        0.0377
     30 H          -1.6814    5.7046    4.6867 H       1  UNL1        0.0377
     31 H          -0.4699    5.9496    2.5371 H       1  UNL1        0.0270
     32 H          -2.0196    5.9334    1.6618 H       1  UNL1        0.0270
     33 H          -2.4943    3.6652    2.5442 H       1  UNL1        0.0265
     34 H          -0.9445    3.6814    3.4195 H       1  UNL1        0.0265
     35 H           0.2670    3.9263    1.2699 H       1  UNL1        0.0265
     36 H          -1.2827    3.9101    0.3946 H       1  UNL1        0.0265
     37 H          -1.7574    1.6419    1.2770 H       1  UNL1        0.0265
     38 H          -0.2076    1.6581    2.1523 H       1  UNL1        0.0265
     39 H           1.0039    1.9031    0.0027 H       1  UNL1        0.0265
     40 H          -0.5459    1.8868   -0.8726 H       1  UNL1        0.0265
     41 H           0.5293   -0.3651    0.8851 H       1  UNL1        0.0265
     42 H          -1.0205   -0.3814    0.0098 H       1  UNL1        0.0265
     43 H           0.1910   -0.1364   -2.1398 H       1  UNL1        0.0271
     44 H           1.7408   -0.1202   -1.2645 H       1  UNL1        0.0271
     45 H           1.1541   -2.1800    0.8431 H       1  UNL1        0.0236
     46 H           1.5992   -3.6222   -0.1003 H       1  UNL1        0.0236
     47 H           2.6023   -2.1546   -0.1915 H       1  UNL1        0.0236
     48 H           3.2046   -1.5277   -2.2492 H       1  UNL1        0.0620
     49 H           4.1800   -2.3300   -4.3626 H       1  UNL1        0.0618
     50 H           2.8522   -3.7557   -5.8687 H       1  UNL1        0.0628
     51 H          -0.4208   -3.5907   -3.1376 H       1  UNL1        0.0631
@<TRIPOS>BOND
     1     1     2    1
     2     1    24    1
     3     1    25    1
     4     1    26    1
     5     2     3    1
     6     2    27    1
     7     2    28    1
     8     3     4    1
     9     4     5    2
    10     4     6    1
    11     6     7    1
    12     6    29    1
    13     6    30    1
    14     7     8    1
    15     7    31    1
    16     7    32    1
    17     8     9    1
    18     8    33    1
    19     8    34    1
    20     9    10    1
    21     9    35    1
    22     9    36    1
    23    10    11    1
    24    10    37    1
    25    10    38    1
    26    11    12    1
    27    11    39    1
    28    11    40    1
    29    12    13    1
    30    12    41    1
    31    12    42    1
    32    13    14    1
    33    13    43    1
    34    13    44    1
    35    14    15    1
    36    14    16    1
    37    14    17    1
    38    16    45    1
    39    16    46    1
    40    16    47    1
    41    17    22   ar
    42    17    18   ar
    43    18    19   ar
    44    18    48    1
    45    19    20   ar
    46    19    49    1
    47    20    21   ar
    48    20    50    1
    49    21    22   ar
    50    21    23    1
    51    22    51    1
