@<TRIPOS>MOLECULE
ZINC03831338
 105 110 0 0 0
SMALL
GASTEIGER

@<TRIPOS>ATOM
      1 C          -2.4353    2.6616   -1.9528 C.3     1  UNL1        0.0332
      2 C          -1.5685    2.0072   -0.9081 C.2     1  UNL1        0.3043
      3 O          -1.0821    0.9217   -1.1202 O.2     1  UNL1       -0.2512
      4 O          -1.3367    2.6303    0.2580 O.3     1  UNL1       -0.4599
      5 C          -0.4913    1.9399    1.2187 C.3     1  UNL1        0.1188
      6 H          -0.6089    0.8637    1.0875 H       1  UNL1        0.0750
      7 C           0.9659    2.3311    0.9820 C.3     1  UNL1       -0.0108
      8 C           1.8758    1.6463    2.0003 C.3     1  UNL1       -0.0319
      9 H           2.8999    2.0172    1.8502 H       1  UNL1        0.0307
     10 C           1.8751    0.1408    1.7512 C.3     1  UNL1       -0.0493
     11 C           2.7622   -0.5831    2.7783 C.3     1  UNL1       -0.0494
     12 C           2.1894   -0.2566    4.1486 C.3     1  UNL1       -0.0342
     13 H           1.1018   -0.4561    4.0865 H       1  UNL1        0.0306
     14 C           2.3586    1.2506    4.3965 C.3     1  UNL1       -0.0322
     15 H           3.3814    1.5409    4.1404 H       1  UNL1        0.0309
     16 C           1.4435    1.9986    3.4294 C.3     1  UNL1       -0.0245
     17 C          -0.0156    1.6290    3.6543 C.3     1  UNL1       -0.0280
     18 C          -0.9154    2.3301    2.6350 C.3     1  UNL1        0.0483
     19 H          -0.8571    3.4097    2.7534 H       1  UNL1        0.0499
     20 N          -2.3050    1.9059    2.8522 N.3     1  UNL1       -0.2859
     21 C          -2.8490    2.4950    4.0840 C.3     1  UNL1        0.0397
     22 C          -4.3127    2.0777    4.2421 C.3     1  UNL1       -0.0175
     23 N          -4.4010    0.6126    4.2991 N.4     1  UNL1        0.2408
     24 C          -3.8768    0.0399    3.0522 C.3     1  UNL1       -0.0175
     25 C          -2.4094    0.4402    2.8842 C.3     1  UNL1        0.0397
     26 C          -5.8044    0.2131    4.4690 C.3     1  UNL1       -0.0414
     27 C          -3.6109    0.1186    5.4347 C.3     1  UNL1       -0.0414
     28 C           1.6378    3.5075    3.6482 C.3     1  UNL1       -0.0590
     29 C           2.1241    1.5409    5.8677 C.3     1  UNL1       -0.0488
     30 C           3.3021    0.9829    6.6896 C.3     1  UNL1       -0.0437
     31 C           3.8021   -0.3091    6.0961 C.3     1  UNL1        0.0096
     32 C           2.6969   -1.0419    5.3109 C.3     1  UNL1       -0.0276
     33 H           1.8491   -1.2347    5.9993 H       1  UNL1        0.0310
     34 C           3.3613   -2.3934    5.0051 C.3     1  UNL1       -0.0302
     35 C           4.1679   -2.7018    6.2953 C.3     1  UNL1        0.0486
     36 H           5.1835   -3.0004    6.0387 H       1  UNL1        0.0499
     37 C           4.1931   -1.3914    7.1224 C.3     1  UNL1        0.1240
     38 H           5.1866   -1.1972    7.5090 H       1  UNL1        0.0755
     39 O           3.2131   -1.4500    8.1871 O.3     1  UNL1       -0.4594
     40 C           3.6658   -1.7409    9.4168 C.2     1  UNL1        0.3043
     41 O           4.8527   -1.8538    9.6125 O.2     1  UNL1       -0.2512
     42 C           2.6936   -1.9267   10.5532 C.3     1  UNL1        0.0332
     43 N           3.5060   -3.7667    7.0608 N.3     1  UNL1       -0.2859
     44 C           3.8216   -5.0898    6.5040 C.3     1  UNL1        0.0397
     45 C           3.1634   -6.1716    7.3630 C.3     1  UNL1       -0.0175
     46 N           1.7094   -5.9639    7.3830 N.4     1  UNL1        0.2408
     47 C           1.4089   -4.6489    7.9642 C.3     1  UNL1       -0.0175
     48 C           2.0525   -3.5543    7.1102 C.3     1  UNL1        0.0397
     49 C           1.0763   -7.0132    8.1930 C.3     1  UNL1       -0.0414
     50 C           1.1880   -6.0233    6.0110 C.3     1  UNL1       -0.0414
     51 C           5.0355   -0.0517    5.2259 C.3     1  UNL1       -0.0559
     52 H          -1.8149    3.2704   -2.6105 H       1  UNL1        0.0342
     53 H          -2.9410    1.8938   -2.5383 H       1  UNL1        0.0342
     54 H          -3.1772    3.2940   -1.4652 H       1  UNL1        0.0342
     55 H           1.2587    2.0083   -0.0245 H       1  UNL1        0.0304
     56 H           1.0749    3.4118    1.0369 H       1  UNL1        0.0304
     57 H           0.8587   -0.2425    1.8299 H       1  UNL1        0.0268
     58 H           2.2580   -0.0597    0.7505 H       1  UNL1        0.0268
     59 H           3.7832   -0.2213    2.6958 H       1  UNL1        0.0268
     60 H           2.7235   -1.6561    2.6019 H       1  UNL1        0.0268
     61 H          -0.1554    0.5518    3.5535 H       1  UNL1        0.0287
     62 H          -0.3185    1.9285    4.6614 H       1  UNL1        0.0287
     63 H          -2.2753    2.1410    4.9406 H       1  UNL1        0.0479
     64 H          -2.7847    3.5815    4.0267 H       1  UNL1        0.0479
     65 H          -4.8887    2.4436    3.3921 H       1  UNL1        0.0828
     66 H          -4.7140    2.5019    5.1625 H       1  UNL1        0.0828
     67 H          -4.4549    0.4163    2.2083 H       1  UNL1        0.0828
     68 H          -3.9549   -1.0466    3.0904 H       1  UNL1        0.0828
     69 H          -2.0244    0.0278    1.9516 H       1  UNL1        0.0479
     70 H          -1.8285    0.0524    3.7210 H       1  UNL1        0.0479
     71 H          -5.8700   -0.8740    4.5126 H       1  UNL1        0.0778
     72 H          -6.1936    0.6380    5.3943 H       1  UNL1        0.0778
     73 H          -6.3909    0.5790    3.6263 H       1  UNL1        0.0778
     74 H          -2.5694    0.4142    5.3087 H       1  UNL1        0.0778
     75 H          -3.9998    0.5434    6.3601 H       1  UNL1        0.0778
     76 H          -3.6773   -0.9686    5.4779 H       1  UNL1        0.0778
     77 H           1.0298    4.0598    2.9318 H       1  UNL1        0.0235
     78 H           1.3335    3.7698    4.6615 H       1  UNL1        0.0235
     79 H           2.6880    3.7629    3.5067 H       1  UNL1        0.0235
     80 H           2.0443    2.6138    6.0473 H       1  UNL1        0.0268
     81 H           1.1956    1.0618    6.1937 H       1  UNL1        0.0268
     82 H           4.1140    1.7203    6.6964 H       1  UNL1        0.0272
     83 H           2.9791    0.8251    7.7227 H       1  UNL1        0.0272
     84 H           2.6005   -3.1614    4.8440 H       1  UNL1        0.0284
     85 H           4.0167   -2.3295    4.1406 H       1  UNL1        0.0284
     86 H           2.3993   -2.9746   10.6119 H       1  UNL1        0.0342
     87 H           3.1673   -1.6294   11.4888 H       1  UNL1        0.0342
     88 H           1.8112   -1.3106   10.3808 H       1  UNL1        0.0342
     89 H           3.4429   -5.1548    5.4840 H       1  UNL1        0.0479
     90 H           4.9019   -5.2349    6.5011 H       1  UNL1        0.0479
     91 H           3.5525   -6.1150    8.3797 H       1  UNL1        0.0828
     92 H           3.3844   -7.1531    6.9436 H       1  UNL1        0.0828
     93 H           1.8069   -4.6001    8.9778 H       1  UNL1        0.0828
     94 H           0.3292   -4.5014    7.9905 H       1  UNL1        0.0828
     95 H           1.8422   -2.5793    7.5496 H       1  UNL1        0.0479
     96 H           1.6447   -3.5937    6.1001 H       1  UNL1        0.0479
     97 H          -0.0028   -6.8600    8.2069 H       1  UNL1        0.0778
     98 H           1.2992   -7.9892    7.7618 H       1  UNL1        0.0778
     99 H           1.4626   -6.9690    9.2112 H       1  UNL1        0.0778
    100 H           1.6573   -5.2444    5.4099 H       1  UNL1        0.0778
    101 H           1.4109   -6.9991    5.5794 H       1  UNL1        0.0778
    102 H           0.1089   -5.8704    6.0254 H       1  UNL1        0.0778
    103 H           5.8202    0.4003    5.8327 H       1  UNL1        0.0236
    104 H           5.3929   -0.9954    4.8139 H       1  UNL1        0.0236
    105 H           4.7714    0.6234    4.4119 H       1  UNL1        0.0236
@<TRIPOS>UNITY_ATOM_ATTR
23 1
charge 1
46 1
charge 1
@<TRIPOS>BOND
     1     1     2    1
     2     1    52    1
     3     1    53    1
     4     1    54    1
     5     2     3    2
     6     2     4    1
     7     4     5    1
     8     5     6    1
     9     5    18    1
    10     5     7    1
    11     7     8    1
    12     7    55    1
    13     7    56    1
    14     8     9    1
    15     8    16    1
    16     8    10    1
    17    10    11    1
    18    10    57    1
    19    10    58    1
    20    11    12    1
    21    11    59    1
    22    11    60    1
    23    12    13    1
    24    12    32    1
    25    12    14    1
    26    14    15    1
    27    14    16    1
    28    14    29    1
    29    16    17    1
    30    16    28    1
    31    17    18    1
    32    17    61    1
    33    17    62    1
    34    18    19    1
    35    18    20    1
    36    20    25    1
    37    20    21    1
    38    21    22    1
    39    21    63    1
    40    21    64    1
    41    22    23    1
    42    22    65    1
    43    22    66    1
    44    23    24    1
    45    23    26    1
    46    23    27    1
    47    24    25    1
    48    24    67    1
    49    24    68    1
    50    25    69    1
    51    25    70    1
    52    26    71    1
    53    26    72    1
    54    26    73    1
    55    27    74    1
    56    27    75    1
    57    27    76    1
    58    28    77    1
    59    28    78    1
    60    28    79    1
    61    29    30    1
    62    29    80    1
    63    29    81    1
    64    30    31    1
    65    30    82    1
    66    30    83    1
    67    31    37    1
    68    31    32    1
    69    31    51    1
    70    32    33    1
    71    32    34    1
    72    34    35    1
    73    34    84    1
    74    34    85    1
    75    35    36    1
    76    35    37    1
    77    35    43    1
    78    37    38    1
    79    37    39    1
    80    39    40    1
    81    40    41    2
    82    40    42    1
    83    42    86    1
    84    42    87    1
    85    42    88    1
    86    43    48    1
    87    43    44    1
    88    44    45    1
    89    44    89    1
    90    44    90    1
    91    45    46    1
    92    45    91    1
    93    45    92    1
    94    46    47    1
    95    46    49    1
    96    46    50    1
    97    47    48    1
    98    47    93    1
    99    47    94    1
   100    48    95    1
   101    48    96    1
   102    49    97    1
   103    49    98    1
   104    49    99    1
   105    50   100    1
   106    50   101    1
   107    50   102    1
   108    51   103    1
   109    51   104    1
   110    51   105    1
