@<TRIPOS>MOLECULE
ZINC00896918
 22 22 0 0 0
SMALL
GASTEIGER

@<TRIPOS>ATOM
      1 C          -0.0126    1.0758    0.0080 C.ar    1  UNL1       -0.0075
      2 C          -1.2195    1.7504    0.0173 C.ar    1  UNL1        0.1083
      3 C          -1.2396    3.1323    0.0298 C.ar    1  UNL1       -0.0155
      4 C          -0.0517    3.8414    0.0223 C.ar    1  UNL1        0.0630
      5 C           1.1567    3.1660    0.0076 C.ar    1  UNL1        0.0856
      6 C           1.1750    1.7827    0.0004 C.ar    1  UNL1        0.1265
      7 S           2.7124    0.9220   -0.0189 S.O2    1  UNL1        0.0574
      8 O           3.5142    1.4999    1.0022 O.2     1  UNL1       -0.1532
      9 O           2.4015   -0.4642   -0.0504 O.2     1  UNL1       -0.1532
     10 N           3.4525    1.2739   -1.4579 N.3     1  UNL1       -0.2035
     11 CL          2.6482    4.0544   -0.0025 Cl      1  UNL1       -0.0800
     12 CL         -0.0764    5.5772    0.0318 Cl      1  UNL1       -0.0819
     13 S          -2.7327    0.8477    0.0196 S.O2    1  UNL1        0.0561
     14 O          -3.7220    1.7122   -0.5219 O.2     1  UNL1       -0.1533
     15 O          -2.4461   -0.4268   -0.5396 O.2     1  UNL1       -0.1533
     16 N          -3.1457    0.5883    1.6021 N.3     1  UNL1       -0.2035
     17 H           0.0021   -0.0041    0.0020 H       1  UNL1        0.0657
     18 H          -2.1826    3.6585    0.0409 H       1  UNL1        0.0652
     19 H           4.4207    1.2884   -1.5145 H       1  UNL1        0.1442
     20 H           2.9178    1.4656   -2.2442 H       1  UNL1        0.1442
     21 H          -4.0797    0.5182    1.8544 H       1  UNL1        0.1442
     22 H          -2.4536    0.5065    2.2768 H       1  UNL1        0.1442
@<TRIPOS>BOND
     1     1     6   ar
     2     1     2   ar
     3     1    17    1
     4     2     3   ar
     5     2    13    1
     6     3     4   ar
     7     3    18    1
     8     4     5   ar
     9     4    12    1
    10     5     6   ar
    11     5    11    1
    12     6     7    1
    13     7     8    2
    14     7     9    2
    15     7    10    1
    16    10    19    1
    17    10    20    1
    18    13    14    2
    19    13    15    2
    20    13    16    1
    21    16    21    1
    22    16    22    1
