@<TRIPOS>MOLECULE
ZINC03795098
 30 31 0 0 0
SMALL
GASTEIGER

@<TRIPOS>ATOM
      1 C5          4.1625    4.4099    0.4845 C.ar    1    C1       -0.0056
      2 C6          3.1365    3.5314    0.3895 C.ar    1    C1        0.0152
      3 N1          2.8229    2.7544    1.4641 N.ar    1    C1       -0.2700
      4 C2          3.5219    2.8631    2.6088 C.ar    1    C1        0.3522
      5 O2          3.2241    2.1631    3.5624 O.2     1    C1       -0.2444
      6 N3          4.5371    3.7185    2.7158 N.ar    1    C1       -0.1783
      7 C4          4.8787    4.4953    1.6962 C.ar    1    C1        0.1230
      8 N4          5.9252    5.3795    1.8203 N.pl3   1    C1       -0.3430
      9 C1*         1.7151    1.7999    1.3745 C.3     1    C1        0.1680
     10 H1*         1.9132    0.9246    1.9933 H       1    C1        0.0867
     11 C2*         0.3791    2.4687    1.7870 C.3     1    C1        0.1286
     12 H2*         0.2363    2.4192    2.8664 H       1    C1        0.0665
     13 C3*        -0.6632    1.5927    1.0502 C.3     1    C1        0.1135
     14 H3*        -1.4558    2.2132    0.6321 H       1    C1        0.0647
     15 C4*         0.1415    0.9147   -0.0756 C.3     1    C1        0.1126
     16 H4*         0.1368   -0.1663    0.0647 H       1    C1        0.0647
     17 O4*         1.4880    1.4117    0.0026 O.3     1    C1       -0.3456
     18 C5*        -0.4643    1.2651   -1.4361 C.3     1    C1        0.0730
     19 O5*         0.2225    0.5465   -2.4627 O.3     1    C1       -0.3924
     20 O3*        -1.2081    0.6124    1.9357 O.3     1    C1       -0.3864
     21 O2*         0.3234    3.8213    1.3292 O.3     1    C1       -0.3847
     22 H5          4.4285    5.0353   -0.3549 H       1    C1        0.0666
     23 H6          2.5731    3.4473   -0.5280 H       1    C1        0.0812
     24 H41         6.6269    5.1628    1.1416 H       1    C1        0.1437
     25 H42         6.4160    5.4360    2.6551 H       1    C1        0.1437
     26 H5*1       -1.5195    0.9921   -1.4452 H       1    C1        0.0584
     27 H5*2       -0.3645    2.3360   -1.6133 H       1    C1        0.0584
     28 H5*        -0.1096    0.7204   -3.3541 H       1    C1        0.2095
     29 H3*        -1.8240   -0.0011    1.5122 H       1    C1        0.2100
     30 H2*        -0.4939    4.2822    1.5629 H       1    C1        0.2101
@<TRIPOS>BOND
     1     1     7   ar
     2     1     2   ar
     3     1    22    1
     4     2     3   ar
     5     2    23    1
     6     3     4   ar
     7     3     9    1
     8     4     5    2
     9     4     6   ar
    10     6     7   ar
    11     7     8    1
    12     8    24    1
    13     8    25    1
    14     9    10    1
    15     9    17    1
    16     9    11    1
    17    11    12    1
    18    11    13    1
    19    11    21    1
    20    13    14    1
    21    13    15    1
    22    13    20    1
    23    15    16    1
    24    15    17    1
    25    15    18    1
    26    18    19    1
    27    18    26    1
    28    18    27    1
    29    19    28    1
    30    20    29    1
    31    21    30    1
