@<TRIPOS>MOLECULE
ZINC02000305
 31 31 0 0 0
SMALL
GASTEIGER

@<TRIPOS>ATOM
      1 C          -0.7001    1.5709    1.2704 C.3     1  UNL1       -0.0623
      2 C           0.0094    1.0818    0.0061 C.3     1  UNL1       -0.0415
      3 H           0.0278   -0.0080   -0.0016 H       1  UNL1        0.0299
      4 C          -0.7405    1.5879   -1.2277 C.3     1  UNL1       -0.0500
      5 C          -0.7664    3.1177   -1.2169 C.3     1  UNL1       -0.0474
      6 C           0.6671    3.6522   -1.2364 C.3     1  UNL1       -0.0126
      7 H           1.1725    3.3037   -2.1371 H       1  UNL1        0.0328
      8 C           1.4170    3.1460   -0.0026 C.3     1  UNL1        0.0585
      9 H           0.9115    3.4945    0.8981 H       1  UNL1        0.0596
     10 C           1.4428    1.6163   -0.0134 C.3     1  UNL1       -0.0240
     11 O           2.7558    3.6452   -0.0208 O.3     1  UNL1       -0.3915
     12 C           0.6412    5.1819   -1.2255 C.3     1  UNL1       -0.0415
     13 C           0.0122    5.6906   -2.5242 C.3     1  UNL1       -0.0623
     14 C          -0.1849    5.6696   -0.0336 C.3     1  UNL1       -0.0623
     15 H          -0.7185    2.6607    1.2781 H       1  UNL1        0.0232
     16 H          -1.7213    1.1901    1.2843 H       1  UNL1        0.0232
     17 H          -0.1659    1.2103    2.1494 H       1  UNL1        0.0232
     18 H          -0.2351    1.2395   -2.1284 H       1  UNL1        0.0268
     19 H          -1.7618    1.2072   -1.2138 H       1  UNL1        0.0268
     20 H          -1.2718    3.4661   -0.3162 H       1  UNL1        0.0269
     21 H          -1.3007    3.4783   -2.0959 H       1  UNL1        0.0269
     22 H           1.9771    1.2557    0.8656 H       1  UNL1        0.0293
     23 H           1.9483    1.2678   -0.9141 H       1  UNL1        0.0293
     24 H           3.2909    3.3635    0.7337 H       1  UNL1        0.2098
     25 H           1.6594    5.5619   -1.1417 H       1  UNL1        0.0299
     26 H          -1.0342    5.3882   -2.5639 H       1  UNL1        0.0232
     27 H           0.0778    6.7781   -2.5581 H       1  UNL1        0.0232
     28 H           0.5451    5.2678   -3.3759 H       1  UNL1        0.0232
     29 H          -1.2031    5.2895   -0.1174 H       1  UNL1        0.0232
     30 H           0.2632    5.3072    0.8916 H       1  UNL1        0.0232
     31 H          -0.2033    6.7594   -0.0259 H       1  UNL1        0.0232
@<TRIPOS>BOND
     1     1     2    1
     2     1    15    1
     3     1    16    1
     4     1    17    1
     5     2     3    1
     6     2    10    1
     7     2     4    1
     8     4     5    1
     9     4    18    1
    10     4    19    1
    11     5     6    1
    12     5    20    1
    13     5    21    1
    14     6     7    1
    15     6     8    1
    16     6    12    1
    17     8     9    1
    18     8    10    1
    19     8    11    1
    20    10    22    1
    21    10    23    1
    22    11    24    1
    23    12    13    1
    24    12    14    1
    25    12    25    1
    26    13    26    1
    27    13    27    1
    28    13    28    1
    29    14    29    1
    30    14    30    1
    31    14    31    1
