@<TRIPOS>MOLECULE
ZINC00001924
 20 20 0 0 0
SMALL
GASTEIGER

@<TRIPOS>ATOM
      1 C          -0.0544    4.1593    0.0240 C.ar    1  UNL1       -0.0616
      2 C           1.1533    3.4858    0.0093 C.ar    1  UNL1       -0.0600
      3 C           1.1756    2.1049    0.0021 C.ar    1  UNL1       -0.0394
      4 C          -0.0169    1.3925    0.0097 C.ar    1  UNL1        0.0445
      5 C          -1.2283    2.0722    0.0191 C.ar    1  UNL1       -0.0394
      6 C          -1.2434    3.4532    0.0311 C.ar    1  UNL1       -0.0600
      7 N           0.0021   -0.0041    0.0020 N.pl3   1  UNL1       -0.2633
      8 N          -1.2016   -0.7210    0.0097 N.am    1  UNL1       -0.2205
      9 C          -1.1833   -2.0686    0.0022 C.2     1  UNL1        0.3133
     10 O          -2.2279   -2.6908    0.0089 O.2     1  UNL1       -0.2515
     11 N          -0.0071   -2.7265   -0.0125 N.am    1  UNL1       -0.3122
     12 H          -0.0690    5.2391    0.0295 H       1  UNL1        0.0618
     13 H           2.0801    4.0403    0.0038 H       1  UNL1        0.0618
     14 H           2.1192    1.5796   -0.0097 H       1  UNL1        0.0636
     15 H          -2.1573    1.5214    0.0208 H       1  UNL1        0.0636
     16 H          -2.1848    3.9822    0.0422 H       1  UNL1        0.0618
     17 H           0.8486   -0.4776   -0.0086 H       1  UNL1        0.1700
     18 H          -2.0481   -0.2475    0.0203 H       1  UNL1        0.1743
     19 H           0.8262   -2.2302   -0.0178 H       1  UNL1        0.1465
     20 H           0.0060   -3.6964   -0.0179 H       1  UNL1        0.1465
@<TRIPOS>BOND
     1     1     6   ar
     2     1     2   ar
     3     1    12    1
     4     2     3   ar
     5     2    13    1
     6     3     4   ar
     7     3    14    1
     8     4     5   ar
     9     4     7    1
    10     5     6   ar
    11     5    15    1
    12     6    16    1
    13     7     8    1
    14     7    17    1
    15     8     9   am
    16     8    18    1
    17     9    10    2
    18     9    11   am
    19    11    19    1
    20    11    20    1
