@<TRIPOS>MOLECULE
ZINC03830441
 51 54 0 0 0
SMALL
GASTEIGER

@<TRIPOS>ATOM
      1 C           1.6562    7.4986    2.4285 C.3     1  UNL1        0.0346
      2 N           0.9453    7.2457    1.1727 N.ar    1  UNL1       -0.2233
      3 C           0.7941    6.0591    0.5382 C.ar    1  UNL1        0.2094
      4 N           0.0946    6.2899   -0.5517 N.ar    1  UNL1       -0.1015
      5 N          -0.2087    7.5349   -0.6363 N.ar    1  UNL1       -0.0222
      6 N           0.2732    8.1827    0.3686 N.ar    1  UNL1       -0.0435
      7 S           1.4226    4.5008    1.0685 S.3     1  UNL1       -0.0801
      8 C           0.8177    3.4454   -0.2717 C.3     1  UNL1        0.0251
      9 C           1.2481    2.0226   -0.0239 C.2     1  UNL1       -0.0264
     10 C           0.4259    1.2877    0.7108 C.2     1  UNL1        0.0608
     11 N           0.7074   -0.0616    0.9575 N.am    1  UNL1       -0.2484
     12 C           2.0172   -0.7539    0.7988 C.3     1  UNL1        0.1320
     13 H           2.7072   -0.6269    1.6330 H       1  UNL1        0.0672
     14 C           1.2804   -2.0809    0.7651 C.3     1  UNL1        0.2425
     15 C           0.1370   -1.2227    1.2539 C.2     1  UNL1        0.2745
     16 O          -0.9354   -1.5001    1.7481 O.2     1  UNL1       -0.2701
     17 N           1.0918   -2.6351   -0.5779 N.am    1  UNL1       -0.2764
     18 C           0.4019   -1.9394   -1.5033 C.2     1  UNL1        0.2392
     19 O          -0.0628   -0.8544   -1.2243 O.2     1  UNL1       -0.2736
     20 C           0.2080   -2.5095   -2.8847 C.3     1  UNL1        0.1367
     21 S           1.7533   -3.0659   -3.6715 S.3     1  UNL1       -0.0936
     22 C           1.1070   -2.3594   -5.1681 C.2     1  UNL1        0.0576
     23 C           1.2922   -2.5869   -6.5389 C.2     1  UNL1        0.0785
     24 C           2.1088   -3.7126   -6.9892 C.2     1  UNL1        0.2448
     25 O           2.3737   -3.8383   -8.1710 O.2     1  UNL1       -0.2703
     26 N           2.5685   -4.6114   -6.0963 N.am    1  UNL1       -0.3253
     27 C           0.6882   -1.7262   -7.4874 C.2     1  UNL1        0.0782
     28 O          -0.0673   -0.8469   -7.1169 O.co2   1  UNL1       -0.5444
     29 S           0.1273   -1.2463   -4.1941 S.3     1  UNL1       -0.0936
     30 O           1.7473   -3.0404    1.7155 O.3     1  UNL1       -0.3492
     31 C           1.1256   -4.3219    1.6012 C.3     1  UNL1        0.0396
     32 S           2.6885   -0.1901   -0.8021 S.3     1  UNL1       -0.1285
     33 C           2.5488    1.6166   -0.6375 C.3     1  UNL1        0.0196
     34 C          -0.7973    1.8934    1.2674 C.2     1  UNL1        0.0860
     35 O          -1.7304    1.1872    1.5945 O.co2   1  UNL1       -0.5433
     36 H           2.6993    7.7317    2.2149 H       1  UNL1        0.0474
     37 H           1.1941    8.3403    2.9444 H       1  UNL1        0.0474
     38 H           1.6040    6.6120    3.0604 H       1  UNL1        0.0474
     39 H           1.2303    3.7899   -1.2199 H       1  UNL1        0.0427
     40 H          -0.2706    3.4944   -0.3098 H       1  UNL1        0.0427
     41 H           1.4635   -3.5029   -0.8010 H       1  UNL1        0.1520
     42 H          -0.5972   -3.2427   -2.9324 H       1  UNL1        0.0629
     43 H           2.2926   -4.5575   -5.1679 H       1  UNL1        0.1453
     44 H           3.1752   -5.3122   -6.3820 H       1  UNL1        0.1453
     45 H           1.5342   -4.9927    2.3569 H       1  UNL1        0.0524
     46 H           0.0507   -4.2188    1.7498 H       1  UNL1        0.0524
     47 H           1.3176   -4.7317    0.6096 H       1  UNL1        0.0524
     48 H           3.3645    1.9799   -0.0124 H       1  UNL1        0.0423
     49 H           2.6304    2.0700   -1.6254 H       1  UNL1        0.0423
     50 O           0.9502   -1.8810   -8.8020 O.co2   1  UNL1       -0.5444
     51 O          -0.8806    3.2306    1.4136 O.co2   1  UNL1       -0.5433
@<TRIPOS>UNITY_ATOM_ATTR
50 1
charge -1
51 1
charge -1
@<TRIPOS>BOND
     1     1     2    1
     2     1    36    1
     3     1    37    1
     4     1    38    1
     5     2     6   ar
     6     2     3   ar
     7     3     4   ar
     8     3     7    1
     9     4     5   ar
    10     5     6   ar
    11     7     8    1
    12     8     9    1
    13     8    39    1
    14     8    40    1
    15     9    33    1
    16     9    10    2
    17    10    11    1
    18    10    34    1
    19    11    15   am
    20    11    12    1
    21    12    13    1
    22    12    14    1
    23    12    32    1
    24    14    15    1
    25    14    17    1
    26    14    30    1
    27    15    16    2
    28    17    18   am
    29    17    41    1
    30    18    19    2
    31    18    20    1
    32    20    29    1
    33    20    21    1
    34    20    42    1
    35    21    22    1
    36    22    23    2
    37    22    29    1
    38    23    24    1
    39    23    27    1
    40    24    25    2
    41    24    26   am
    42    26    43    1
    43    26    44    1
    44    27    28   ar
    45    27    50   ar
    46    30    31    1
    47    31    45    1
    48    31    46    1
    49    31    47    1
    50    32    33    1
    51    33    48    1
    52    33    49    1
    53    34    35   ar
    54    34    51   ar
