@<TRIPOS>MOLECULE
ZINC00014360
 42 43 0 0 0
SMALL
GASTEIGER

@<TRIPOS>ATOM
      1 C           6.5982    6.1094    3.1973 C.3     1  UNL1        0.0055
      2 N           5.9293    5.4562    2.0694 N.3     1  UNL1       -0.1973
      3 S           5.1292    4.0244    2.2977 S.O2    1  UNL1        0.0332
      4 O           6.0653    3.1880    2.9636 O.2     1  UNL1       -0.1579
      5 O           4.6336    3.6770    1.0121 O.2     1  UNL1       -0.1579
      6 C           3.7539    4.4310    3.4085 C.3     1  UNL1        0.1067
      7 C           2.9491    3.1878    3.6875 C.ar    1  UNL1       -0.0243
      8 C           3.2803    2.3810    4.7677 C.ar    1  UNL1       -0.0550
      9 C           2.5580    1.2401    5.0400 C.ar    1  UNL1       -0.0375
     10 C           1.4854    0.8906    4.2259 C.ar    1  UNL1        0.0468
     11 C           1.1578    1.7080    3.1289 C.ar    1  UNL1        0.0033
     12 C           1.8996    2.8634    2.8750 C.ar    1  UNL1       -0.0475
     13 C           0.0000    1.0800    2.4877 C.ar    1  UNL1       -0.0173
     14 C          -0.2849   -0.0276    3.1905 C.ar    1  UNL1        0.0061
     15 N           0.5921   -0.1571    4.2328 N.ar    1  UNL1       -0.3604
     16 H           0.5858   -0.8797    4.8799 H       1  UNL1        0.1653
     17 C          -0.7288    1.5792    1.2668 C.3     1  UNL1        0.0147
     18 C          -0.0127    1.0858    0.0080 C.3     1  UNL1       -0.0283
     19 C           0.0585    1.3230   -2.4006 C.3     1  UNL1       -0.0433
     20 C          -2.0591    0.9694   -1.2810 C.3     1  UNL1       -0.0433
     21 H           7.0666    7.0328    2.8566 H       1  UNL1        0.0405
     22 H           5.8657    6.3377    3.9715 H       1  UNL1        0.0405
     23 H           7.3601    5.4438    3.6029 H       1  UNL1        0.0405
     24 H           5.9552    5.8623    1.1889 H       1  UNL1        0.1473
     25 H           3.1157    5.1790    2.9380 H       1  UNL1        0.0565
     26 H           4.1478    4.8265    4.3448 H       1  UNL1        0.0565
     27 H           4.1129    2.6504    5.4006 H       1  UNL1        0.0621
     28 H           2.8233    0.6192    5.8829 H       1  UNL1        0.0638
     29 H           1.6480    3.4956    2.0363 H       1  UNL1        0.0627
     30 H          -1.0874   -0.7147    2.9665 H       1  UNL1        0.0810
     31 H          -0.7436    2.6691    1.2728 H       1  UNL1        0.0366
     32 H          -1.7514    1.2020    1.2746 H       1  UNL1        0.0366
     33 H           0.0021   -0.0041    0.0020 H       1  UNL1        0.0817
     34 H           1.0099    1.4631    0.0003 H       1  UNL1        0.0817
     35 H           0.2299    0.2520   -2.5094 H       1  UNL1        0.0777
     36 H          -0.4905    1.6929   -3.2665 H       1  UNL1        0.0777
     37 H           1.0161    1.8388   -2.3299 H       1  UNL1        0.0777
     38 H          -2.6409    1.2283   -0.3963 H       1  UNL1        0.0777
     39 H          -2.5631    1.3469   -2.1707 H       1  UNL1        0.0777
     40 H          -1.9644   -0.1143   -1.3492 H       1  UNL1        0.0777
     41 N          -0.7265    1.6008   -1.1794 N.4     1  UNL1        0.2311
     42 H          -0.8450    2.6161   -1.0829 H       1  UNL1        0.2028
@<TRIPOS>UNITY_ATOM_ATTR
41 1
charge 1
@<TRIPOS>BOND
     1     1     2    1
     2     1    21    1
     3     1    22    1
     4     1    23    1
     5     2     3    1
     6     2    24    1
     7     3     4    2
     8     3     5    2
     9     3     6    1
    10     6     7    1
    11     6    25    1
    12     6    26    1
    13     7    12   ar
    14     7     8   ar
    15     8     9   ar
    16     8    27    1
    17     9    10   ar
    18     9    28    1
    19    10    15   ar
    20    10    11   ar
    21    11    12   ar
    22    11    13   ar
    23    12    29    1
    24    13    14   ar
    25    13    17    1
    26    14    15   ar
    27    14    30    1
    28    15    16    1
    29    17    18    1
    30    17    31    1
    31    17    32    1
    32    18    33    1
    33    18    34    1
    34    18    41    1
    35    19    35    1
    36    19    36    1
    37    19    37    1
    38    19    41    1
    39    20    38    1
    40    20    39    1
    41    20    40    1
    42    20    41    1
    43    41    42    1
