@<TRIPOS>MOLECULE
ZINC02036848
 47 49 0 0 0
SMALL
GASTEIGER

@<TRIPOS>ATOM
      1 C           0.8899    4.8434   -5.0142 C.3     1  UNL1       -0.0394
      2 C           0.6277    3.5215   -4.3397 C.ar    1  UNL1       -0.0454
      3 C          -0.3293    2.6898   -4.8373 C.ar    1  UNL1       -0.0311
      4 C          -0.5798    1.4527   -4.2120 C.ar    1  UNL1        0.0886
      5 C           0.1712    1.0918   -3.0702 C.ar    1  UNL1        0.0694
      6 C           1.1431    1.9617   -2.5835 C.ar    1  UNL1       -0.0329
      7 C           1.3660    3.1645   -3.2163 C.ar    1  UNL1       -0.0455
      8 C           2.4191    4.1031   -2.6859 C.3     1  UNL1       -0.0394
      9 N          -0.0549   -0.1139   -2.4405 N.ar    1  UNL1       -0.3195
     10 C          -1.0100   -0.9428   -2.9478 C.ar    1  UNL1        0.1705
     11 N          -1.2933   -2.1125   -2.3994 N.ar    1  UNL1       -0.1733
     12 C          -2.2333   -2.9081   -2.9034 C.ar    1  UNL1        0.3505
     13 O          -2.4372   -3.9741   -2.3494 O.2     1  UNL1       -0.2446
     14 N          -2.9697   -2.6099   -3.9832 N.ar    1  UNL1       -0.2717
     15 H          -3.6580   -3.2614   -4.3022 H       1  UNL1        0.1735
     16 C          -2.8000   -1.4447   -4.6500 C.ar    1  UNL1        0.2817
     17 O          -3.4665   -1.1718   -5.6295 O.2     1  UNL1       -0.2653
     18 C          -1.7679   -0.5170   -4.1360 C.ar    1  UNL1        0.1712
     19 N          -1.5212    0.6360   -4.7034 N.ar    1  UNL1       -0.2368
     20 C           0.7182   -0.4975   -1.2568 C.3     1  UNL1        0.0538
     21 C           0.0021   -0.0041    0.0020 C.3     1  UNL1        0.1014
     22 H          -1.0205   -0.3814    0.0098 H       1  UNL1        0.0638
     23 C           0.7421   -0.5109    1.2415 C.3     1  UNL1        0.1106
     24 H           1.7647   -0.1336    1.2338 H       1  UNL1        0.0646
     25 C           0.0259   -0.0175    2.5003 C.3     1  UNL1        0.1065
     26 H          -0.9967   -0.3948    2.5081 H       1  UNL1        0.0643
     27 C           0.7659   -0.5243    3.7399 C.3     1  UNL1        0.0726
     28 O           0.0340   -0.1626    4.9127 O.3     1  UNL1       -0.3924
     29 O           0.0066    1.4114    2.5082 O.3     1  UNL1       -0.3869
     30 O           0.7614   -1.9398    1.2337 O.3     1  UNL1       -0.3865
     31 O          -0.0173    1.4248    0.0099 O.3     1  UNL1       -0.3874
     32 H           0.2511    5.6090   -4.5739 H       1  UNL1        0.0278
     33 H           1.9354    5.1199   -4.8777 H       1  UNL1        0.0278
     34 H           0.6729    4.7573   -6.0789 H       1  UNL1        0.0278
     35 H          -0.8952    2.9784   -5.7107 H       1  UNL1        0.0642
     36 H           1.7213    1.6937   -1.7116 H       1  UNL1        0.0641
     37 H           1.9711    4.7760   -1.9548 H       1  UNL1        0.0278
     38 H           3.2131    3.5270   -2.2108 H       1  UNL1        0.0278
     39 H           2.8347    4.6850   -3.5085 H       1  UNL1        0.0278
     40 H           1.7103   -0.0491   -1.3098 H       1  UNL1        0.0519
     41 H           0.8116   -1.5829   -1.2198 H       1  UNL1        0.0519
     42 H           0.8584   -1.6092    3.6895 H       1  UNL1        0.0584
     43 H           1.7589   -0.0764    3.7787 H       1  UNL1        0.0584
     44 H           0.4457   -0.4525    5.7383 H       1  UNL1        0.2095
     45 H           0.8845    1.8167    2.5020 H       1  UNL1        0.2100
     46 H          -0.1165   -2.3450    1.2399 H       1  UNL1        0.2100
     47 H           0.8606    1.8301    0.0037 H       1  UNL1        0.2100
@<TRIPOS>BOND
     1     1     2    1
     2     1    32    1
     3     1    33    1
     4     1    34    1
     5     2     7   ar
     6     2     3   ar
     7     3     4   ar
     8     3    35    1
     9     4    19   ar
    10     4     5   ar
    11     5     6   ar
    12     5     9   ar
    13     6     7   ar
    14     6    36    1
    15     7     8    1
    16     8    37    1
    17     8    38    1
    18     8    39    1
    19     9    10   ar
    20     9    20    1
    21    10    18    1
    22    10    11   ar
    23    11    12   ar
    24    12    13    2
    25    12    14   ar
    26    14    15    1
    27    14    16   ar
    28    16    17    2
    29    16    18   ar
    30    18    19   ar
    31    20    21    1
    32    20    40    1
    33    20    41    1
    34    21    22    1
    35    21    23    1
    36    21    31    1
    37    23    24    1
    38    23    25    1
    39    23    30    1
    40    25    26    1
    41    25    27    1
    42    25    29    1
    43    27    28    1
    44    27    42    1
    45    27    43    1
    46    28    44    1
    47    29    45    1
    48    30    46    1
    49    31    47    1
