@<TRIPOS>MOLECULE
ZINC03830847
 35 37 0 0 0
SMALL
GASTEIGER

@<TRIPOS>ATOM
      1 C          -1.7569    7.2093   -2.6127 C.3     1  UNL1        0.0833
      2 O          -2.3155    5.8943   -2.3536 O.3     1  UNL1       -0.4534
      3 C          -1.4516    4.9196   -2.0132 C.2     1  UNL1        0.4065
      4 O          -0.2635    5.1609   -1.9349 O.2     1  UNL1       -0.2260
      5 N          -1.9047    3.6759   -1.7594 N.am    1  UNL1       -0.2212
      6 C          -1.0176    2.6749   -1.4099 C.ar    1  UNL1        0.2029
      7 N           0.3321    2.8307   -1.2918 N.ar    1  UNL1       -0.3257
      8 H           0.8482    3.6744   -1.4396 H       1  UNL1        0.1686
      9 C           0.8534    1.5992   -0.9284 C.ar    1  UNL1        0.0681
     10 C           2.1295    1.1389   -0.6673 C.ar    1  UNL1       -0.0254
     11 C           2.3216   -0.1994   -0.3168 C.ar    1  UNL1        0.0243
     12 C           1.2237   -1.0681   -0.2303 C.ar    1  UNL1       -0.0488
     13 C          -0.0353   -0.6179   -0.4866 C.ar    1  UNL1       -0.0335
     14 C          -0.2442    0.7218   -0.8399 C.ar    1  UNL1        0.0908
     15 N          -1.3480    1.4341   -1.1482 N.ar    1  UNL1       -0.2142
     16 C           3.6796   -0.6993   -0.0369 C.2     1  UNL1        0.1932
     17 O           3.8490   -1.5606    0.8050 O.2     1  UNL1       -0.2867
     18 C           4.8344   -0.1544   -0.7785 C.ar    1  UNL1        0.0224
     19 C           4.6305    0.7110   -1.8565 C.ar    1  UNL1       -0.0482
     20 C           5.7121    1.2203   -2.5420 C.ar    1  UNL1       -0.0258
     21 C           7.0007    0.8670   -2.1705 C.ar    1  UNL1        0.1234
     22 C           7.2089    0.0044   -1.1047 C.ar    1  UNL1       -0.0258
     23 C           6.1350   -0.5068   -0.4087 C.ar    1  UNL1       -0.0482
     24 F           8.0572    1.3655   -2.8490 F       1  UNL1       -0.2055
     25 H          -2.5587    7.8993   -2.8757 H       1  UNL1        0.0661
     26 H          -1.2459    7.5694   -1.7198 H       1  UNL1        0.0661
     27 H          -1.0468    7.1463   -3.4372 H       1  UNL1        0.0661
     28 H          -2.8533    3.4832   -1.8219 H       1  UNL1        0.1610
     29 H           2.9734    1.8095   -0.7344 H       1  UNL1        0.0646
     30 H           1.3783   -2.1018    0.0419 H       1  UNL1        0.0625
     31 H          -0.8743   -1.2944   -0.4171 H       1  UNL1        0.0640
     32 H           3.6273    0.9835   -2.1493 H       1  UNL1        0.0625
     33 H           5.5558    1.8924   -3.3728 H       1  UNL1        0.0646
     34 H           8.2146   -0.2670   -0.8195 H       1  UNL1        0.0646
     35 H           6.2983   -1.1782    0.4214 H       1  UNL1        0.0625
@<TRIPOS>BOND
     1     1     2    1
     2     1    25    1
     3     1    26    1
     4     1    27    1
     5     2     3    1
     6     3     4    2
     7     3     5   am
     8     5     6    1
     9     5    28    1
    10     6    15   ar
    11     6     7   ar
    12     7     8    1
    13     7     9   ar
    14     9    14   ar
    15     9    10   ar
    16    10    11   ar
    17    10    29    1
    18    11    12   ar
    19    11    16    1
    20    12    13   ar
    21    12    30    1
    22    13    14   ar
    23    13    31    1
    24    14    15   ar
    25    16    17    2
    26    16    18    1
    27    18    23   ar
    28    18    19   ar
    29    19    20   ar
    30    19    32    1
    31    20    21   ar
    32    20    33    1
    33    21    22   ar
    34    21    24    1
    35    22    23   ar
    36    22    34    1
    37    23    35    1
