@<TRIPOS>MOLECULE
ZINC03831243
 46 49 0 0 0
SMALL
GASTEIGER

@<TRIPOS>ATOM
      1 C          -1.0184   -0.8775    5.1994 C.3     1  UNL1       -0.0029
      2 C          -2.4587   -0.7108    4.7886 C.ar    1  UNL1        0.1469
      3 C          -2.9479    0.1588    3.8468 C.ar    1  UNL1        0.1060
      4 C          -4.3992   -0.1201    3.8645 C.ar    1  UNL1        0.1257
      5 N          -4.5556   -1.0565    4.7653 N.ar    1  UNL1       -0.0773
      6 O          -3.5089   -1.3787    5.2716 O.2     1  UNL1       -0.3586
      7 C          -5.4511    0.5220    3.0391 C.ar    1  UNL1        0.0044
      8 C          -5.3519    1.8716    2.7056 C.ar    1  UNL1       -0.0524
      9 C          -6.3306    2.4623    1.9325 C.ar    1  UNL1       -0.0611
     10 C          -7.4144    1.7204    1.4983 C.ar    1  UNL1       -0.0617
     11 C          -7.5209    0.3820    1.8311 C.ar    1  UNL1       -0.0611
     12 C          -6.5452   -0.2206    2.5989 C.ar    1  UNL1       -0.0524
     13 C          -2.2087    1.1265    3.0183 C.2     1  UNL1        0.2502
     14 O          -2.0358    2.2621    3.4179 O.2     1  UNL1       -0.2700
     15 N          -1.7237    0.7535    1.8174 N.am    1  UNL1       -0.2976
     16 CA         -0.9884    1.7161    0.9934 C.3     1  UNL1        0.1279
     17 HA         -0.5785    2.5506    1.5623 H       1  UNL1        0.0622
     18 C          -0.0127    1.0858    0.0080 C.3     1  UNL1        0.1003
     19 H           0.0021   -0.0041    0.0020 H       1  UNL1        0.0640
     20 N          -0.6963    1.7217   -1.1325 N.am    1  UNL1       -0.2761
     21 C          -1.6882    2.1144   -0.2983 C.2     1  UNL1        0.2401
     22 O          -2.7704    2.6190   -0.5109 O.2     1  UNL1       -0.2734
     23 CA          0.0612    2.7598   -1.8373 C.3     1  UNL1        0.0807
     24 HA         -0.1698    3.7304   -1.3984 H       1  UNL1        0.0576
     25 C           1.5926    2.5071   -1.7380 C.3     1  UNL1        0.0366
     26 S           1.6525    1.8678   -0.0037 S.3     1  UNL1       -0.1275
     27 C           2.3880    3.8056   -1.8869 C.3     1  UNL1       -0.0486
     28 C           2.0564    1.4511   -2.7433 C.3     1  UNL1       -0.0486
     29 C          -0.3453    2.7652   -3.2884 C.2     1  UNL1        0.0635
     30 O          -0.8509    1.7831   -3.7778 O.co2   1  UNL1       -0.5478
     31 H          -0.7954   -0.2011    6.0246 H       1  UNL1        0.0309
     32 H          -0.8477   -1.9062    5.5166 H       1  UNL1        0.0309
     33 H          -0.3704   -0.6455    4.3542 H       1  UNL1        0.0309
     34 H          -4.5086    2.4529    3.0481 H       1  UNL1        0.0624
     35 H          -6.2525    3.5070    1.6697 H       1  UNL1        0.0618
     36 H          -8.1801    2.1879    0.8969 H       1  UNL1        0.0618
     37 H          -8.3694   -0.1924    1.4897 H       1  UNL1        0.0618
     38 H          -6.6292   -1.2657    2.8578 H       1  UNL1        0.0624
     39 H          -1.8616   -0.1522    1.4987 H       1  UNL1        0.1499
     40 H           3.4350    3.6199   -1.6470 H       1  UNL1        0.0244
     41 H           2.3085    4.1648   -2.9129 H       1  UNL1        0.0244
     42 H           1.9873    4.5572   -1.2067 H       1  UNL1        0.0244
     43 H           1.4251    0.5666   -2.6584 H       1  UNL1        0.0244
     44 H           1.9830    1.8542   -3.7534 H       1  UNL1        0.0244
     45 H           3.0913    1.1803   -2.5344 H       1  UNL1        0.0244
     46 OXT        -0.1455    3.8612   -4.0372 O.co2   1  UNL1       -0.5478
@<TRIPOS>UNITY_ATOM_ATTR
46 1
charge -1
@<TRIPOS>BOND
     1     1     2    1
     2     1    31    1
     3     1    32    1
     4     1    33    1
     5     2     6   ar
     6     2     3   ar
     7     3     4   ar
     8     3    13    1
     9     4     5   ar
    10     4     7    1
    11     5     6   ar
    12     7    12   ar
    13     7     8   ar
    14     8     9   ar
    15     8    34    1
    16     9    10   ar
    17     9    35    1
    18    10    11   ar
    19    10    36    1
    20    11    12   ar
    21    11    37    1
    22    12    38    1
    23    13    14    2
    24    13    15   am
    25    15    16    1
    26    15    39    1
    27    16    17    1
    28    16    21    1
    29    16    18    1
    30    18    19    1
    31    18    26    1
    32    18    20    1
    33    20    21   am
    34    20    23    1
    35    21    22    2
    36    23    24    1
    37    23    25    1
    38    23    29    1
    39    25    26    1
    40    25    27    1
    41    25    28    1
    42    27    40    1
    43    27    41    1
    44    27    42    1
    45    28    43    1
    46    28    44    1
    47    28    45    1
    48    29    30   ar
    49    29    46   ar
