@<TRIPOS>MOLECULE
ZINC02033922
 49 51 0 0 0
SMALL
GASTEIGER

@<TRIPOS>ATOM
      1 C           1.1858    2.1062    0.0020 C.ar    0  UNK0       -0.0479
      2 C           2.3843    1.4302   -0.0135 C.ar    0  UNK0       -0.0401
      3 C           2.3998    0.0381   -0.0207 C.ar    0  UNK0        0.0275
      4 C           1.2038   -0.6744   -0.0131 C.ar    0  UNK0       -0.0401
      5 C           0.0021   -0.0041    0.0020 C.ar    0  UNK0       -0.0479
      6 C          -0.0169    1.3937    0.0097 C.ar    0  UNK0        0.0368
      7 C          -1.3035    2.1154    0.0197 C.2     0  UNK0        0.2446
      8 O          -2.3489    1.4945    0.0213 O.2     0  UNK0       -0.2702
      9 N          -1.3201    3.4631    0.0271 N.am    1  GLU1       -0.3034
     10 CA         -2.5978    4.1798    0.0371 C.3     1  GLU1        0.0632
     11 HA         -3.3293    3.6265   -0.5519 H       1  GLU1        0.0560
     12 CB         -2.4059    5.5728   -0.5659 C.3     1  GLU1       -0.0241
     13 CG         -2.0269    5.4416   -2.0424 C.3     1  GLU1       -0.0112
     14 CD         -1.8378    6.8137   -2.6363 C.2     1  GLU1        0.0418
     15 OE1        -1.9906    7.7957   -1.9491 O.co2   1  GLU1       -0.5498
     16 C          -3.0898    4.3098    1.4556 C.2     1  GLU1        0.0620
     17 O          -2.4398    3.8509    2.3649 O.co2   1  GLU1       -0.5479
     18 N           3.6125   -0.6422   -0.0359 N.pl3   0  UNK0       -0.3382
     19 C           4.8720    0.1060   -0.0439 C.3     0  UNK0        0.0530
     20 C           6.0294   -0.8589   -0.0601 C.ar    0  UNK0        0.0773
     21 C           6.6118   -1.2182   -1.2695 C.ar    0  UNK0        0.0528
     22 N           7.6303   -2.0580   -1.3007 N.ar    0  UNK0       -0.2339
     23 C           8.0924   -2.5700   -0.1691 C.ar    0  UNK0        0.1644
     24 C           7.4980   -2.2096    1.0531 C.ar    0  UNK0        0.1725
     25 N           6.4796   -1.3612    1.0731 N.ar    0  UNK0       -0.2400
     26 C           8.0433   -2.8025    2.2922 C.ar    0  UNK0        0.3021
     27 O           7.5663   -2.5257    3.3796 O.2     0  UNK0       -0.2633
     28 N           9.0744   -3.6525    2.1911 N.ar    0  UNK0       -0.1756
     29 C           9.6020   -3.9633    1.0259 C.ar    0  UNK0        0.1953
     30 N           9.1502   -3.4550   -0.1505 N.ar    0  UNK0       -0.3109
     31 H           9.5742   -3.7165   -0.9828 H       0  UNK0        0.1701
     32 N          10.6523   -4.8368    0.9980 N.pl3   0  UNK0       -0.3289
     33 H           1.1744    3.1862    0.0076 H       0  UNK0        0.0626
     34 H           3.3138    1.9800   -0.0194 H       0  UNK0        0.0636
     35 H           1.2191   -1.7542   -0.0186 H       0  UNK0        0.0636
     36 H          -0.9254   -0.5573    0.0083 H       0  UNK0        0.0626
     37 H          -0.4862    3.9584    0.0259 H       1  GLU1        0.1496
     38 HB1        -3.3338    6.1378   -0.4778 H       1  GLU1        0.0290
     39 HB2        -1.6112    6.0936   -0.0317 H       1  GLU1        0.0290
     40 HG1        -1.0990    4.8766   -2.1305 H       1  GLU1        0.0325
     41 HG2        -2.8215    4.9208   -2.5766 H       1  GLU1        0.0325
     42 H           3.6245   -1.6121   -0.0412 H       0  UNK0        0.1465
     43 H           4.9135    0.7381   -0.9309 H       0  UNK0        0.0527
     44 H           4.9305    0.7286    0.8489 H       0  UNK0        0.0527
     45 H           6.2312   -0.8034   -2.1912 H       0  UNK0        0.0849
     46 H          11.0578   -5.0808    0.1513 H       0  UNK0        0.1451
     47 H          10.9923   -5.2130    1.8250 H       0  UNK0        0.1451
     48 OE2        -1.4998    6.9448   -3.9287 O.co2   1  GLU1       -0.5498
     49 OXT        -4.2500    4.9355    1.7088 O.co2   1  GLU1       -0.5479
@<TRIPOS>UNITY_ATOM_ATTR
48 1
charge -1
49 1
charge -1
@<TRIPOS>BOND
     1     1     6   ar
     2     1     2   ar
     3     1    33    1
     4     2     3   ar
     5     2    34    1
     6     3     4   ar
     7     3    18    1
     8     4     5   ar
     9     4    35    1
    10     5     6   ar
    11     5    36    1
    12     6     7    1
    13     7     8    2
    14     7     9   am
    15     9    10    1
    16     9    37    1
    17    10    11    1
    18    10    12    1
    19    10    16    1
    20    12    13    1
    21    12    38    1
    22    12    39    1
    23    13    14    1
    24    13    40    1
    25    13    41    1
    26    14    15   ar
    27    14    48   ar
    28    16    17   ar
    29    16    49   ar
    30    18    19    1
    31    18    42    1
    32    19    20    1
    33    19    43    1
    34    19    44    1
    35    20    25   ar
    36    20    21   ar
    37    21    22   ar
    38    21    45    1
    39    22    23   ar
    40    23    30   ar
    41    23    24   ar
    42    24    25   ar
    43    24    26   ar
    44    26    27    2
    45    26    28   ar
    46    28    29   ar
    47    29    30   ar
    48    29    32    1
    49    30    31    1
    50    32    46    1
    51    32    47    1
