@<TRIPOS>MOLECULE
ZINC00004508
 30 31 0 0 0
SMALL
GASTEIGER

@<TRIPOS>ATOM
      1 C          -6.2753    2.0232    0.5090 C.3     1  UNL1       -0.0397
      2 C          -4.9629    1.2940    0.3788 C.ar    1  UNL1       -0.0504
      3 C          -4.9221    0.0534   -0.2330 C.ar    1  UNL1       -0.0582
      4 C          -3.7243   -0.6194   -0.3559 C.ar    1  UNL1       -0.0507
      5 C          -2.5510   -0.0457    0.1387 C.ar    1  UNL1        0.0223
      6 C          -2.6004    1.2041    0.7601 C.ar    1  UNL1       -0.0507
      7 C          -3.8042    1.8683    0.8712 C.ar    1  UNL1       -0.0582
      8 C          -1.2640   -0.7605    0.0105 C.2     1  UNL1        0.1935
      9 O          -1.2423   -1.9047   -0.4003 O.2     1  UNL1       -0.2866
     10 C          -0.0058   -0.0861    0.3810 C.ar    1  UNL1        0.0321
     11 C           1.0435   -0.8199    0.9430 C.ar    1  UNL1        0.0260
     12 C           2.2177   -0.1882    1.2888 C.ar    1  UNL1        0.2697
     13 C           2.3630    1.1772    1.0802 C.ar    1  UNL1        0.0141
     14 C           1.3205    1.9154    0.5205 C.ar    1  UNL1        0.1163
     15 C           0.1405    1.2888    0.1715 C.ar    1  UNL1       -0.0095
     16 O           1.4663    3.2522    0.3177 O.3     1  UNL1       -0.5071
     17 N           3.3274   -0.9665    1.8836 N.pl3   1  UNL1        0.0791
     18 O           3.2016   -2.1640    2.0668 O.2     1  UNL1        0.0414
     19 O           4.3663   -0.4093    2.1899 O.co2   1  UNL1       -0.5761
     20 H          -6.7534    1.7459    1.4485 H       1  UNL1        0.0278
     21 H          -6.0965    3.0984    0.4959 H       1  UNL1        0.0278
     22 H          -6.9253    1.7528   -0.3231 H       1  UNL1        0.0278
     23 H          -5.8302   -0.3889   -0.6153 H       1  UNL1        0.0620
     24 H          -3.6938   -1.5874   -0.8339 H       1  UNL1        0.0625
     25 H          -1.6975    1.6514    1.1488 H       1  UNL1        0.0625
     26 H          -3.8431    2.8368    1.3475 H       1  UNL1        0.0620
     27 H           0.9335   -1.8818    1.1057 H       1  UNL1        0.0692
     28 H          -0.6658    1.8584   -0.2665 H       1  UNL1        0.0661
     29 H           1.1860    3.7965    1.0663 H       1  UNL1        0.2921
     30 O           3.5225    1.7951    1.4228 O.co2   1  UNL1       -0.8670
@<TRIPOS>UNITY_ATOM_ATTR
17 1
charge 1
19 1
charge -1
30 1
charge -1
@<TRIPOS>BOND
     1     1     2    1
     2     1    20    1
     3     1    21    1
     4     1    22    1
     5     2     7   ar
     6     2     3   ar
     7     3     4   ar
     8     3    23    1
     9     4     5   ar
    10     4    24    1
    11     5     6   ar
    12     5     8    1
    13     6     7   ar
    14     6    25    1
    15     7    26    1
    16     8     9    2
    17     8    10    1
    18    10    15   ar
    19    10    11   ar
    20    11    12   ar
    21    11    27    1
    22    12    13   ar
    23    12    17    1
    24    13    14   ar
    25    13    30    1
    26    14    15   ar
    27    14    16    1
    28    15    28    1
    29    16    29    1
    30    17    18    2
    31    17    19    1
