@<TRIPOS>MOLECULE
ZINC11616273
 58 61 0 0 0
SMALL
GASTEIGER

@<TRIPOS>ATOM
      1 C          11.8281    6.5961    5.2515 C.3     1  UNL1       -0.0653
      2 C          10.3051    6.7178    5.3330 C.3     1  UNL1       -0.0554
      3 C           9.7057    6.5663    3.9335 C.3     1  UNL1       -0.0432
      4 C           8.1827    6.6880    4.0150 C.3     1  UNL1        0.0449
      5 C           7.5924    6.5388    2.6365 C.2     1  UNL1        0.3074
      6 O           8.3155    6.3542    1.6864 O.2     1  UNL1       -0.2508
      7 O           6.2631    6.6111    2.4643 O.3     1  UNL1       -0.4608
      8 C           5.7659    6.4589    1.1122 C.3     1  UNL1        0.1087
      9 H           6.4321    5.8482    0.5131 H       1  UNL1        0.0739
     10 C           5.5439    7.8451    0.4535 C.3     1  UNL1       -0.0149
     11 C           4.1148    7.8167   -0.1620 C.3     1  UNL1       -0.0460
     12 C           3.8110    6.3158   -0.2179 C.3     1  UNL1       -0.0288
     13 H           4.4643    5.8896   -1.0143 H       1  UNL1        0.0310
     14 C           4.3591    5.8311    1.1388 C.3     1  UNL1        0.0081
     15 C           4.3222    4.3204    1.1800 C.3     1  UNL1       -0.0434
     16 C           2.8768    3.8542    0.9638 C.3     1  UNL1       -0.0453
     17 C           2.3184    4.3462   -0.3679 C.3     1  UNL1       -0.0125
     18 H           2.9091    3.8942   -1.1740 H       1  UNL1        0.0352
     19 C           2.4152    5.8685   -0.5002 C.3     1  UNL1       -0.0305
     20 H           2.1924    6.1116   -1.5608 H       1  UNL1        0.0310
     21 C           1.3312    6.5255    0.3439 C.3     1  UNL1       -0.0454
     22 C          -0.0160    6.2438   -0.3356 C.3     1  UNL1       -0.0270
     23 C          -0.1813    4.7553   -0.5127 C.ar    1  UNL1       -0.0405
     24 C           0.8898    3.8892   -0.5169 C.ar    1  UNL1       -0.0406
     25 C           0.6688    2.5259   -0.6765 C.ar    1  UNL1       -0.0546
     26 C          -0.6089    2.0338   -0.8358 C.ar    1  UNL1       -0.0199
     27 C          -1.6868    2.9069   -0.8409 C.ar    1  UNL1        0.1171
     28 C          -1.4687    4.2641   -0.6740 C.ar    1  UNL1       -0.0167
     29 O          -2.9498    2.4336   -1.0048 O.3     1  UNL1       -0.5068
     30 C           3.6176    6.4232    2.3348 C.3     1  UNL1       -0.0559
     31 H          12.2551    6.7040    6.2485 H       1  UNL1        0.0230
     32 H          12.0934    5.6196    4.8463 H       1  UNL1        0.0230
     33 H          12.2207    7.3781    4.6015 H       1  UNL1        0.0230
     34 H          10.0397    7.6942    5.7382 H       1  UNL1        0.0263
     35 H           9.9124    5.9358    5.9830 H       1  UNL1        0.0263
     36 H           9.9710    5.5898    3.5283 H       1  UNL1        0.0270
     37 H          10.0984    7.3483    3.2835 H       1  UNL1        0.0270
     38 H           7.9174    7.6644    4.4202 H       1  UNL1        0.0377
     39 H           7.7901    5.9060    4.6650 H       1  UNL1        0.0377
     40 H           5.6129    8.6322    1.2025 H       1  UNL1        0.0301
     41 H           6.2823    8.0063   -0.3320 H       1  UNL1        0.0301
     42 H           4.1292    8.2398   -1.1691 H       1  UNL1        0.0269
     43 H           3.4064    8.3508    0.4626 H       1  UNL1        0.0269
     44 H           4.9622    3.9106    0.3943 H       1  UNL1        0.0272
     45 H           4.6804    3.9661    2.1506 H       1  UNL1        0.0272
     46 H           2.8625    2.7597    0.9636 H       1  UNL1        0.0271
     47 H           2.2432    4.2010    1.7750 H       1  UNL1        0.0271
     48 H           1.4892    7.5987    0.4054 H       1  UNL1        0.0271
     49 H           1.2973    6.0851    1.3403 H       1  UNL1        0.0271
     50 H          -0.0357    6.7308   -1.3066 H       1  UNL1        0.0313
     51 H          -0.8171    6.6256    0.2923 H       1  UNL1        0.0313
     52 H           1.5081    1.8460   -0.6757 H       1  UNL1        0.0622
     53 H          -0.7708    0.9730   -0.9608 H       1  UNL1        0.0654
     54 H          -2.3072    4.9450   -0.6718 H       1  UNL1        0.0657
     55 H          -3.3944    2.2042   -0.1773 H       1  UNL1        0.2921
     56 H           2.5989    6.0362    2.3587 H       1  UNL1        0.0236
     57 H           4.1329    6.1469    3.2548 H       1  UNL1        0.0236
     58 H           3.5918    7.5092    2.2449 H       1  UNL1        0.0236
@<TRIPOS>BOND
     1     1     2    1
     2     1    31    1
     3     1    32    1
     4     1    33    1
     5     2     3    1
     6     2    34    1
     7     2    35    1
     8     3     4    1
     9     3    36    1
    10     3    37    1
    11     4     5    1
    12     4    38    1
    13     4    39    1
    14     5     6    2
    15     5     7    1
    16     7     8    1
    17     8     9    1
    18     8    14    1
    19     8    10    1
    20    10    11    1
    21    10    40    1
    22    10    41    1
    23    11    12    1
    24    11    42    1
    25    11    43    1
    26    12    13    1
    27    12    19    1
    28    12    14    1
    29    14    15    1
    30    14    30    1
    31    15    16    1
    32    15    44    1
    33    15    45    1
    34    16    17    1
    35    16    46    1
    36    16    47    1
    37    17    18    1
    38    17    24    1
    39    17    19    1
    40    19    20    1
    41    19    21    1
    42    21    22    1
    43    21    48    1
    44    21    49    1
    45    22    23    1
    46    22    50    1
    47    22    51    1
    48    23    28   ar
    49    23    24   ar
    50    24    25   ar
    51    25    26   ar
    52    25    52    1
    53    26    27   ar
    54    26    53    1
    55    27    28   ar
    56    27    29    1
    57    28    54    1
    58    29    55    1
    59    30    56    1
    60    30    57    1
    61    30    58    1
