@<TRIPOS>MOLECULE
ZINC11592702
 57 60 0 0 0
SMALL
GASTEIGER

@<TRIPOS>ATOM
      1 C          -4.0524    0.9203   -0.4043 C.3     1  UNL1       -0.0587
      2 C          -3.3836    1.7112    0.7200 C.3     1  UNL1       -0.0212
      3 H          -4.0763    1.8481    1.5428 H       1  UNL1        0.0343
      4 C          -2.9591    3.0833    0.1708 C.3     1  UNL1       -0.0432
      5 C          -2.1176    3.7204    1.2737 C.3     1  UNL1       -0.0308
      6 H          -2.5972    3.4321    2.2408 H       1  UNL1        0.0308
      7 C          -2.0455    5.2100    1.2505 C.3     1  UNL1       -0.0292
      8 H          -1.6355    5.5405    2.2304 H       1  UNL1        0.0310
      9 C          -3.3365    6.0032    1.0194 C.3     1  UNL1       -0.0463
     10 C          -2.8002    7.4360    0.7404 C.3     1  UNL1       -0.0162
     11 C          -1.3276    7.2740    0.2829 C.3     1  UNL1        0.1315
     12 C          -1.1291    5.7591    0.1381 C.3     1  UNL1        0.0091
     13 C           0.2645    5.2276    0.3703 C.3     1  UNL1       -0.0178
     14 C           0.2277    3.6852    0.2697 C.3     1  UNL1        0.0600
     15 H          -0.0259    3.4156   -0.7473 H       1  UNL1        0.0596
     16 C          -0.7277    3.0834    1.2790 C.3     1  UNL1        0.0007
     17 H          -0.2998    3.3471    2.2752 H       1  UNL1        0.0340
     18 C          -0.8011    1.5787    1.2896 C.3     1  UNL1        0.0133
     19 C          -2.1628    0.9724    1.2007 C.2     1  UNL1       -0.0531
     20 C          -2.3276   -0.3260    1.5359 C.2     1  UNL1       -0.0146
     21 C          -1.1106   -1.0646    1.9594 C.2     1  UNL1        0.1787
     22 O          -0.9166   -2.2307    1.6635 O.2     1  UNL1       -0.2879
     23 C          -0.1481   -0.2769    2.7735 C.2     1  UNL1       -0.0180
     24 C          -0.0038    1.0159    2.4377 C.2     1  UNL1       -0.0701
     25 C          -0.0891    1.0675    0.0397 C.3     1  UNL1       -0.0520
     26 O           1.5663    3.2432    0.5545 O.3     1  UNL1       -0.3914
     27 C          -1.6176    5.3749   -1.2618 C.3     1  UNL1       -0.0562
     28 C          -0.3937    7.8607    1.3028 C.2     1  UNL1        0.1902
     29 O           0.0464    7.1672    2.1881 O.2     1  UNL1       -0.2919
     30 C          -0.0061    9.3148    1.2213 C.3     1  UNL1        0.1052
     31 O           0.8834    9.6314    2.2939 O.3     1  UNL1       -0.3874
     32 O          -1.1376    7.9060   -0.9860 O.3     1  UNL1       -0.3804
     33 H          -4.3462   -0.0614   -0.0329 H       1  UNL1        0.0235
     34 H          -4.9357    1.4571   -0.7504 H       1  UNL1        0.0235
     35 H          -3.3523    0.8014   -1.2312 H       1  UNL1        0.0235
     36 H          -2.3728    2.9283   -0.7323 H       1  UNL1        0.0274
     37 H          -3.8429    3.6789   -0.0383 H       1  UNL1        0.0274
     38 H          -3.9523    5.9977    1.9218 H       1  UNL1        0.0269
     39 H          -3.9005    5.6228    0.1740 H       1  UNL1        0.0269
     40 H          -2.8419    8.0315    1.6529 H       1  UNL1        0.0297
     41 H          -3.3874    7.9103   -0.0442 H       1  UNL1        0.0297
     42 H           0.6264    5.4900    1.3661 H       1  UNL1        0.0297
     43 H           0.9500    5.6164   -0.3844 H       1  UNL1        0.0297
     44 H          -3.2990   -0.8115    1.5134 H       1  UNL1        0.0656
     45 H           0.4051   -0.7230    3.5936 H       1  UNL1        0.0653
     46 H           0.6821    1.6554    2.9879 H       1  UNL1        0.0582
     47 H          -0.0922   -0.0225    0.0400 H       1  UNL1        0.0241
     48 H           0.9396    1.4279    0.0345 H       1  UNL1        0.0241
     49 H          -0.6063    1.4320   -0.8478 H       1  UNL1        0.0241
     50 H           2.2330    3.5905   -0.0538 H       1  UNL1        0.2098
     51 H          -1.5291    4.2966   -1.3943 H       1  UNL1        0.0236
     52 H          -2.6604    5.6707   -1.3766 H       1  UNL1        0.0236
     53 H          -1.0110    5.8841   -2.0107 H       1  UNL1        0.0236
     54 H           0.4488    9.4901    0.3482 H       1  UNL1        0.0637
     55 H          -0.9001    9.9338    1.2960 H       1  UNL1        0.0637
     56 H           1.1748   10.5534    2.3041 H       1  UNL1        0.2100
     57 H          -1.2485    8.8665   -0.9676 H       1  UNL1        0.2108
@<TRIPOS>BOND
     1     1     2    1
     2     1    33    1
     3     1    34    1
     4     1    35    1
     5     2     3    1
     6     2    19    1
     7     2     4    1
     8     4     5    1
     9     4    36    1
    10     4    37    1
    11     5     6    1
    12     5    16    1
    13     5     7    1
    14     7     8    1
    15     7    12    1
    16     7     9    1
    17     9    10    1
    18     9    38    1
    19     9    39    1
    20    10    11    1
    21    10    40    1
    22    10    41    1
    23    11    12    1
    24    11    28    1
    25    11    32    1
    26    12    13    1
    27    12    27    1
    28    13    14    1
    29    13    42    1
    30    13    43    1
    31    14    15    1
    32    14    16    1
    33    14    26    1
    34    16    17    1
    35    16    18    1
    36    18    24    1
    37    18    19    1
    38    18    25    1
    39    19    20    2
    40    20    21    1
    41    20    44    1
    42    21    22    2
    43    21    23    1
    44    23    24    2
    45    23    45    1
    46    24    46    1
    47    25    47    1
    48    25    48    1
    49    25    49    1
    50    26    50    1
    51    27    51    1
    52    27    52    1
    53    27    53    1
    54    28    29    2
    55    28    30    1
    56    30    31    1
    57    30    54    1
    58    30    55    1
    59    31    56    1
    60    32    57    1
