@<TRIPOS>MOLECULE
ZINC01699599
 46 49 0 0 0
SMALL
GASTEIGER

@<TRIPOS>ATOM
      1 C           1.3544    2.0834    2.5014 C.3     1  UNL1       -0.0565
      2 C           2.1087    1.5321    1.2898 C.3     1  UNL1        0.0091
      3 H           3.1448    1.8696    1.3170 H       1  UNL1        0.0361
      4 C           2.0635    0.0044    1.3057 C.3     1  UNL1       -0.0134
      5 H           2.4663   -0.3313    2.2613 H       1  UNL1        0.0857
      6 C           2.9624   -0.5347    0.2066 C.3     1  UNL1        0.0161
      7 C           2.8022    0.1853   -1.0836 C.ar    1  UNL1       -0.0381
      8 C           3.3891   -0.3694   -2.2159 C.ar    1  UNL1       -0.0547
      9 C           3.3083    0.2704   -3.4338 C.ar    1  UNL1       -0.0199
     10 C           2.6344    1.4791   -3.5347 C.ar    1  UNL1        0.1172
     11 C           2.0419    2.0276   -2.4095 C.ar    1  UNL1       -0.0162
     12 C           2.1215    1.3767   -1.1877 C.ar    1  UNL1       -0.0340
     13 C           1.4406    2.0175   -0.0009 C.3     1  UNL1        0.0058
     14 C          -0.0187    1.5285    0.0104 C.3     1  UNL1       -0.0027
     15 C           0.0021   -0.0041    0.0020 C.3     1  UNL1       -0.0308
     16 C           0.6610   -1.9573    1.2677 C.3     1  UNL1       -0.0287
     17 C          -0.7822   -2.4231    1.4705 C.3     1  UNL1       -0.0007
     18 C          -1.1110   -3.1583    2.7713 C.3     1  UNL1       -0.0450
     19 C          -1.0474   -3.9298    1.4516 C.3     1  UNL1       -0.0450
     20 C           1.4961    3.5436   -0.0935 C.3     1  UNL1       -0.0549
     21 O           2.5566    2.1209   -4.7302 O.3     1  UNL1       -0.5068
     22 H           1.8202    1.7178    3.4166 H       1  UNL1        0.0235
     23 H           1.3892    3.1727    2.4862 H       1  UNL1        0.0235
     24 H           0.3165    1.7525    2.4647 H       1  UNL1        0.0235
     25 H           4.0011   -0.4550    0.5275 H       1  UNL1        0.0368
     26 H           2.7250   -1.5851    0.0380 H       1  UNL1        0.0368
     27 H           3.9132   -1.3107   -2.1400 H       1  UNL1        0.0622
     28 H           3.7680   -0.1680   -4.3073 H       1  UNL1        0.0654
     29 H           1.5153    2.9676   -2.4840 H       1  UNL1        0.0657
     30 H          -0.5381    1.8957   -0.8747 H       1  UNL1        0.0325
     31 H          -0.5211    1.8862    0.9093 H       1  UNL1        0.0325
     32 H          -1.0206   -0.3812   -0.0026 H       1  UNL1        0.0815
     33 H           0.5229   -0.3554   -0.8887 H       1  UNL1        0.0815
     34 H           1.0505   -2.3748    0.3392 H       1  UNL1        0.0817
     35 H           1.2731   -2.2963    2.1035 H       1  UNL1        0.0817
     36 H          -1.5496   -1.7717    1.0523 H       1  UNL1        0.0352
     37 H          -0.2992   -3.3102    3.4827 H       1  UNL1        0.0270
     38 H          -2.0950   -2.9906    3.2093 H       1  UNL1        0.0270
     39 H          -1.9895   -4.2696    1.0213 H       1  UNL1        0.0270
     40 H          -0.1938   -4.5892    1.2947 H       1  UNL1        0.0270
     41 H           0.9844    3.9786    0.7650 H       1  UNL1        0.0238
     42 H           2.5361    3.8697   -0.1002 H       1  UNL1        0.0238
     43 H           1.0071    3.8699   -1.0115 H       1  UNL1        0.0238
     44 H           3.2824    2.7388   -4.8928 H       1  UNL1        0.2921
     45 N           0.6709   -0.4879    1.2339 N.4     1  UNL1        0.2380
     46 H           0.1547   -0.1340    2.0479 H       1  UNL1        0.2036
@<TRIPOS>UNITY_ATOM_ATTR
45 1
charge 1
@<TRIPOS>BOND
     1     1     2    1
     2     1    22    1
     3     1    23    1
     4     1    24    1
     5     2     3    1
     6     2    13    1
     7     2     4    1
     8     4     5    1
     9     4     6    1
    10     4    45    1
    11     6     7    1
    12     6    25    1
    13     6    26    1
    14     7    12   ar
    15     7     8   ar
    16     8     9   ar
    17     8    27    1
    18     9    10   ar
    19     9    28    1
    20    10    11   ar
    21    10    21    1
    22    11    12   ar
    23    11    29    1
    24    12    13    1
    25    13    14    1
    26    13    20    1
    27    14    15    1
    28    14    30    1
    29    14    31    1
    30    15    32    1
    31    15    33    1
    32    15    45    1
    33    16    17    1
    34    16    34    1
    35    16    35    1
    36    16    45    1
    37    17    19    1
    38    17    18    1
    39    17    36    1
    40    18    19    1
    41    18    37    1
    42    18    38    1
    43    19    39    1
    44    19    40    1
    45    20    41    1
    46    20    42    1
    47    20    43    1
    48    21    44    1
    49    45    46    1
