@<TRIPOS>MOLECULE
ZINC07997830
 54 59 0 0 0
SMALL
GASTEIGER

@<TRIPOS>ATOM
      1 C          -1.5351    3.7150    2.3534 C.ar    1  UNL1       -0.0544
      2 C          -2.0421    4.9901    2.1372 C.ar    1  UNL1       -0.0162
      3 C          -2.1700    5.5669    0.8721 C.ar    1  UNL1        0.1588
      4 C          -1.7081    4.8267   -0.2101 C.ar    1  UNL1        0.1664
      5 C          -1.0835    3.6052    0.0752 C.ar    1  UNL1        0.0142
      6 C          -1.0872    2.9660    1.2869 C.ar    1  UNL1       -0.0343
      7 C          -0.7236    1.5334    1.2717 C.3     1  UNL1        0.0187
      8 C          -0.0127    1.0858    0.0080 C.3     1  UNL1        0.0136
      9 H           0.0021   -0.0041    0.0020 H       1  UNL1        0.0883
     10 C          -0.6158    1.5481   -1.3104 C.3     1  UNL1        0.1219
     11 C          -0.5892    3.0757   -1.2410 C.3     1  UNL1        0.0775
     12 C           0.8369    3.5246   -1.4450 C.3     1  UNL1        0.0036
     13 C           1.6022    2.9771   -0.2193 C.3     1  UNL1       -0.0305
     14 C           2.1068    1.0861    1.1918 C.3     1  UNL1       -0.0286
     15 C           3.6019    1.3678    1.0301 C.3     1  UNL1       -0.0008
     16 C           4.3597    0.2604    0.2791 C.3     1  UNL1       -0.0454
     17 C           5.5012    0.4660    1.2915 C.3     1  UNL1       -0.0522
     18 C           4.4363    0.9948    2.2668 C.3     1  UNL1       -0.0454
     19 C          -1.7426    3.6687   -2.0379 C.3     1  UNL1        0.1387
     20 H          -2.5717    3.2176   -1.4928 H       1  UNL1        0.0769
     21 O          -1.7603    5.0025   -1.5783 O.3     1  UNL1       -0.4813
     22 C          -1.8558    3.0401   -3.3726 C.3     1  UNL1        0.0930
     23 H          -2.5802    3.5800   -3.9824 H       1  UNL1        0.0630
     24 C          -2.3471    1.5906   -3.1153 C.3     1  UNL1       -0.0205
     25 C          -2.0277    1.1355   -1.6770 C.3     1  UNL1       -0.0153
     26 O          -0.5819    3.0241   -4.0198 O.3     1  UNL1       -0.3881
     27 O           0.2506    1.1366   -2.3696 O.3     1  UNL1       -0.3820
     28 O          -2.7218    6.7987    0.7060 O.3     1  UNL1       -0.5033
     29 H          -1.4920    3.3119    3.3544 H       1  UNL1        0.0622
     30 H          -2.3550    5.5670    2.9949 H       1  UNL1        0.0655
     31 H          -1.6312    0.9417    1.3916 H       1  UNL1        0.0369
     32 H          -0.0716    1.3474    2.1252 H       1  UNL1        0.0369
     33 H           0.8919    4.6129   -1.4714 H       1  UNL1        0.0328
     34 H           1.2422    3.1027   -2.3647 H       1  UNL1        0.0328
     35 H           1.2761    3.5190    0.6684 H       1  UNL1        0.0815
     36 H           2.6677    3.1542   -0.3657 H       1  UNL1        0.0815
     37 H           1.7306    1.6124    2.0691 H       1  UNL1        0.0817
     38 H           1.9503    0.0145    1.3161 H       1  UNL1        0.0817
     39 H           3.8053    2.3697    0.6521 H       1  UNL1        0.0352
     40 H           3.8850   -0.7183    0.3492 H       1  UNL1        0.0270
     41 H           4.6272    0.5300   -0.7426 H       1  UNL1        0.0270
     42 H           6.2249    1.2209    0.9841 H       1  UNL1        0.0266
     43 H           5.9693   -0.4627    1.6177 H       1  UNL1        0.0266
     44 H           4.7655    1.8565    2.8476 H       1  UNL1        0.0270
     45 H           3.9825    0.2173    2.8814 H       1  UNL1        0.0270
     46 H          -3.4248    1.5462   -3.2723 H       1  UNL1        0.0292
     47 H          -1.8573    0.9178   -3.8192 H       1  UNL1        0.0292
     48 H          -2.7317    1.5985   -0.9856 H       1  UNL1        0.0296
     49 H          -2.1159    0.0510   -1.6120 H       1  UNL1        0.0296
     50 H          -0.5928    2.6234   -4.8998 H       1  UNL1        0.2099
     51 H           0.3797    0.1797   -2.4230 H       1  UNL1        0.2105
     52 H          -3.6791    6.7858    0.5699 H       1  UNL1        0.2923
     53 N           1.4330    1.5056   -0.0383 N.4     1  UNL1        0.2399
     54 H           1.8767    1.0331   -0.8347 H       1  UNL1        0.2037
@<TRIPOS>UNITY_ATOM_ATTR
53 1
charge 1
@<TRIPOS>BOND
     1     1     6   ar
     2     1     2   ar
     3     1    29    1
     4     2     3   ar
     5     2    30    1
     6     3     4   ar
     7     3    28    1
     8     4    21    1
     9     4     5   ar
    10     5    11    1
    11     5     6   ar
    12     6     7    1
    13     7     8    1
    14     7    31    1
    15     7    32    1
    16     8     9    1
    17     8    10    1
    18     8    53    1
    19    10    25    1
    20    10    11    1
    21    10    27    1
    22    11    12    1
    23    11    19    1
    24    12    13    1
    25    12    33    1
    26    12    34    1
    27    13    35    1
    28    13    36    1
    29    13    53    1
    30    14    15    1
    31    14    37    1
    32    14    38    1
    33    14    53    1
    34    15    18    1
    35    15    16    1
    36    15    39    1
    37    16    17    1
    38    16    40    1
    39    16    41    1
    40    17    18    1
    41    17    42    1
    42    17    43    1
    43    18    44    1
    44    18    45    1
    45    19    20    1
    46    19    21    1
    47    19    22    1
    48    22    23    1
    49    22    24    1
    50    22    26    1
    51    24    25    1
    52    24    46    1
    53    24    47    1
    54    25    48    1
    55    25    49    1
    56    26    50    1
    57    27    51    1
    58    28    52    1
    59    53    54    1
