@<TRIPOS>MOLECULE
ZINC03831378
 71 74 0 0 0
SMALL
GASTEIGER

@<TRIPOS>ATOM
      1 C          -4.9838   -3.5814    0.1775 C.3     1  UNL1       -0.0562
      2 C          -4.0371   -4.5864   -0.4883 C.3     1  UNL1        0.0092
      3 C          -4.1666   -4.5302   -1.9880 C.3     1  UNL1       -0.0178
      4 C          -5.1415   -5.6102   -2.4976 C.3     1  UNL1        0.0600
      5 H          -5.6208   -5.2515   -3.4125 H       1  UNL1        0.0596
      6 C          -6.1933   -5.8850   -1.4374 C.3     1  UNL1        0.0007
      7 H          -6.5872   -4.9128   -1.0860 H       1  UNL1        0.0340
      8 C          -5.5572   -6.6149   -0.2473 C.3     1  UNL1       -0.0311
      9 H          -5.3715   -7.6671   -0.5199 H       1  UNL1        0.0308
     10 C          -4.2181   -6.0134    0.0607 C.3     1  UNL1       -0.0292
     11 H          -3.4418   -6.6652   -0.3990 H       1  UNL1        0.0310
     12 C          -3.8425   -5.8412    1.5390 C.3     1  UNL1       -0.0463
     13 C          -2.6349   -4.8648    1.4795 C.3     1  UNL1       -0.0161
     14 C          -2.6245   -4.2650    0.0508 C.3     1  UNL1        0.1326
     15 C          -2.4222   -2.7768    0.0997 C.2     1  UNL1        0.2022
     16 O          -2.7260   -2.1585    1.0915 O.2     1  UNL1       -0.2907
     17 C          -1.8401   -2.0560   -1.0889 C.3     1  UNL1        0.1530
     18 O          -1.7456   -0.6371   -0.7957 O.3     1  UNL1       -0.4568
     19 C          -1.2435    0.1520   -1.7586 C.2     1  UNL1        0.3080
     20 O          -0.8946   -0.3272   -2.8115 O.2     1  UNL1       -0.2508
     21 C          -1.1151    1.6354   -1.5264 C.3     1  UNL1        0.0498
     22 C          -0.5196    2.2967   -2.7710 C.3     1  UNL1       -0.0277
     23 C          -1.4363    2.0457   -3.9700 C.3     1  UNL1       -0.0596
     24 C          -0.3892    3.8028   -2.5352 C.3     1  UNL1       -0.0596
     25 C           0.8622    1.7030   -3.0523 C.3     1  UNL1       -0.0596
     26 O          -1.6330   -4.8941   -0.7531 O.3     1  UNL1       -0.3804
     27 C          -6.5252   -6.6257    0.9303 C.3     1  UNL1       -0.0458
     28 C          -7.7950   -7.3982    0.5289 C.3     1  UNL1       -0.0302
     29 C          -8.3453   -6.7667   -0.7369 C.2     1  UNL1       -0.0559
     30 C          -9.5979   -6.3388   -0.7526 C.2     1  UNL1       -0.0149
     31 C         -10.1546   -5.7035   -1.9590 C.2     1  UNL1        0.1787
     32 O         -11.2970   -5.2795   -1.9694 O.2     1  UNL1       -0.2879
     33 C          -9.3010   -5.5914   -3.1548 C.2     1  UNL1       -0.0180
     34 C          -8.0514   -6.0337   -3.1169 C.2     1  UNL1       -0.0701
     35 C          -7.4164   -6.6492   -1.9199 C.3     1  UNL1        0.0131
     36 C          -7.0205   -8.0631   -2.3310 C.3     1  UNL1       -0.0520
     37 O          -4.3991   -6.7952   -2.7973 O.3     1  UNL1       -0.3914
     38 H          -4.7655   -2.5785   -0.1895 H       1  UNL1        0.0236
     39 H          -6.0151   -3.8397   -0.0627 H       1  UNL1        0.0236
     40 H          -4.8439   -3.6113    1.2580 H       1  UNL1        0.0236
     41 H          -3.1896   -4.6800   -2.4607 H       1  UNL1        0.0297
     42 H          -4.5389   -3.5431   -2.2911 H       1  UNL1        0.0297
     43 H          -3.5310   -6.7990    1.9639 H       1  UNL1        0.0269
     44 H          -4.6597   -5.4219    2.1169 H       1  UNL1        0.0269
     45 H          -1.7079   -5.4079    1.6626 H       1  UNL1        0.0297
     46 H          -2.7568   -4.0735    2.2180 H       1  UNL1        0.0297
     47 H          -2.4306   -2.1935   -1.8841 H       1  UNL1        0.0779
     48 H          -0.8464   -2.4500   -1.3018 H       1  UNL1        0.0779
     49 H          -2.0995    2.0584   -1.3260 H       1  UNL1        0.0383
     50 H          -0.4620    1.8143   -0.6722 H       1  UNL1        0.0383
     51 H          -2.4207    2.4687   -3.7696 H       1  UNL1        0.0235
     52 H          -1.0120    2.5168   -4.8566 H       1  UNL1        0.0235
     53 H          -1.5292    0.9727   -4.1379 H       1  UNL1        0.0235
     54 H           0.2639    3.9817   -1.6810 H       1  UNL1        0.0235
     55 H           0.0351    4.2740   -3.4219 H       1  UNL1        0.0235
     56 H          -1.3736    4.2258   -2.3348 H       1  UNL1        0.0235
     57 H           0.7693    0.6301   -3.2202 H       1  UNL1        0.0235
     58 H           1.2864    2.1742   -3.9389 H       1  UNL1        0.0235
     59 H           1.5152    1.8819   -2.1981 H       1  UNL1        0.0235
     60 H          -0.7274   -4.7468   -0.4478 H       1  UNL1        0.2108
     61 H          -6.0593   -7.1223    1.7806 H       1  UNL1        0.0271
     62 H          -6.7939   -5.6073    1.2014 H       1  UNL1        0.0271
     63 H          -8.5352   -7.3174    1.3281 H       1  UNL1        0.0310
     64 H          -7.5567   -8.4459    0.3618 H       1  UNL1        0.0310
     65 H         -10.2156   -6.4574    0.1287 H       1  UNL1        0.0655
     66 H          -9.6936   -5.1489   -4.0611 H       1  UNL1        0.0653
     67 H          -7.4522   -5.9466   -4.0133 H       1  UNL1        0.0582
     68 H          -6.5879   -8.5824   -1.4759 H       1  UNL1        0.0241
     69 H          -7.9033   -8.6020   -2.6750 H       1  UNL1        0.0241
     70 H          -6.2872   -8.0155   -3.1361 H       1  UNL1        0.0241
     71 H          -3.7148   -6.6713   -3.4691 H       1  UNL1        0.2098
@<TRIPOS>BOND
     1     1     2    1
     2     1    38    1
     3     1    39    1
     4     1    40    1
     5     2    10    1
     6     2    14    1
     7     2     3    1
     8     3     4    1
     9     3    41    1
    10     3    42    1
    11     4     5    1
    12     4     6    1
    13     4    37    1
    14     6     7    1
    15     6    35    1
    16     6     8    1
    17     8     9    1
    18     8    10    1
    19     8    27    1
    20    10    11    1
    21    10    12    1
    22    12    13    1
    23    12    43    1
    24    12    44    1
    25    13    14    1
    26    13    45    1
    27    13    46    1
    28    14    15    1
    29    14    26    1
    30    15    16    2
    31    15    17    1
    32    17    18    1
    33    17    47    1
    34    17    48    1
    35    18    19    1
    36    19    20    2
    37    19    21    1
    38    21    22    1
    39    21    49    1
    40    21    50    1
    41    22    23    1
    42    22    24    1
    43    22    25    1
    44    23    51    1
    45    23    52    1
    46    23    53    1
    47    24    54    1
    48    24    55    1
    49    24    56    1
    50    25    57    1
    51    25    58    1
    52    25    59    1
    53    26    60    1
    54    27    28    1
    55    27    61    1
    56    27    62    1
    57    28    29    1
    58    28    63    1
    59    28    64    1
    60    29    35    1
    61    29    30    2
    62    30    31    1
    63    30    65    1
    64    31    32    2
    65    31    33    1
    66    33    34    2
    67    33    66    1
    68    34    35    1
    69    34    67    1
    70    35    36    1
    71    36    68    1
    72    36    69    1
    73    36    70    1
    74    37    71    1
