@<TRIPOS>MOLECULE
ZINC00020220
 42 45 0 0 0
SMALL
GASTEIGER

@<TRIPOS>ATOM
      1 C           1.1740    2.0812   -0.4485 C.ar    1  UNL1       -0.0118
      2 C           1.1466    3.4591   -0.2184 C.ar    1  UNL1        0.0486
      3 C          -0.0779    4.1512   -0.1959 C.ar    1  UNL1        0.0549
      4 C          -1.2587    3.4480   -0.4048 C.ar    1  UNL1       -0.0136
      5 C          -1.2156    2.0830   -0.6374 C.ar    1  UNL1        0.0677
      6 C           0.0058    1.4036   -0.6526 C.ar    1  UNL1        0.1451
      7 F           0.0313    0.0714   -0.8756 F       1  UNL1       -0.2035
      8 N          -2.3991    1.3812   -0.8526 N.pl3   1  UNL1       -0.3175
      9 C          -2.1263   -0.0294   -1.1612 C.3     1  UNL1        0.0525
     10 C          -3.4435   -0.7457   -1.4684 C.3     1  UNL1       -0.0175
     11 C          -4.6165    0.7837   -0.0043 C.3     1  UNL1       -0.0175
     12 C          -3.2993    1.5000    0.3028 C.3     1  UNL1        0.0525
     13 N          -0.1044    5.5113    0.0303 N.ar    1  UNL1       -0.3427
     14 C           1.0046    6.2336    0.2369 C.ar    1  UNL1        0.0179
     15 C           2.2620    5.6654    0.2373 C.ar    1  UNL1        0.0607
     16 C           2.3891    4.2171    0.0044 C.ar    1  UNL1        0.1983
     17 O           3.4775    3.6685   -0.0040 O.2     1  UNL1       -0.2865
     18 C           3.4549    6.4921    0.4673 C.2     1  UNL1        0.0767
     19 O           4.5580    5.9812    0.4657 O.co2   1  UNL1       -0.5445
     20 C          -1.4000    6.1949    0.0460 C.3     1  UNL1        0.0347
     21 C          -1.3936    7.7228   -0.0327 C.3     1  UNL1       -0.0302
     22 C          -1.7454    7.0260    1.2832 C.3     1  UNL1       -0.0302
     23 H           2.1161    1.5534   -0.4646 H       1  UNL1        0.0654
     24 H          -2.2067    3.9651   -0.3902 H       1  UNL1        0.0658
     25 H          -1.4679   -0.0914   -2.0278 H       1  UNL1        0.0516
     26 H          -1.6461   -0.5027   -0.3048 H       1  UNL1        0.0516
     27 H          -3.2465   -1.7988   -1.6692 H       1  UNL1        0.0829
     28 H          -3.9103   -0.2898   -2.3415 H       1  UNL1        0.0829
     29 H          -5.2748    0.8457    0.8622 H       1  UNL1        0.0829
     30 H          -5.0969    1.2573   -0.8605 H       1  UNL1        0.0829
     31 H          -2.8325    1.0441    1.1759 H       1  UNL1        0.0516
     32 H          -3.4959    2.5531    0.5039 H       1  UNL1        0.0516
     33 H           0.9115    7.2959    0.4083 H       1  UNL1        0.0817
     34 H          -2.2153    5.6685   -0.4504 H       1  UNL1        0.0528
     35 H          -0.4254    8.2195   -0.0960 H       1  UNL1        0.0286
     36 H          -2.2047    8.2020   -0.5809 H       1  UNL1        0.0286
     37 H          -2.7879    7.0467    1.6007 H       1  UNL1        0.0286
     38 H          -1.0086    7.0642    2.0856 H       1  UNL1        0.0286
     39 N          -4.3474   -0.6346   -0.3079 N.4     1  UNL1        0.2292
     40 H          -3.9085   -1.0783    0.5074 H       1  UNL1        0.2015
     41 H          -5.2325   -1.1094   -0.5209 H       1  UNL1        0.2015
     42 O           3.3259    7.8170    0.6803 O.co2   1  UNL1       -0.5445
@<TRIPOS>UNITY_ATOM_ATTR
39 1
charge 1
42 1
charge -1
@<TRIPOS>BOND
     1     1     6   ar
     2     1     2   ar
     3     1    23    1
     4     2    16   ar
     5     2     3   ar
     6     3     4   ar
     7     3    13   ar
     8     4     5   ar
     9     4    24    1
    10     5     6   ar
    11     5     8    1
    12     6     7    1
    13     8    12    1
    14     8     9    1
    15     9    10    1
    16     9    25    1
    17     9    26    1
    18    10    27    1
    19    10    28    1
    20    10    39    1
    21    11    12    1
    22    11    29    1
    23    11    30    1
    24    11    39    1
    25    12    31    1
    26    12    32    1
    27    13    14   ar
    28    13    20    1
    29    14    15   ar
    30    14    33    1
    31    15    16   ar
    32    15    18    1
    33    16    17    2
    34    18    19   ar
    35    18    42   ar
    36    20    22    1
    37    20    21    1
    38    20    34    1
    39    21    22    1
    40    21    35    1
    41    21    36    1
    42    22    37    1
    43    22    38    1
    44    39    40    1
    45    39    41    1
