@<TRIPOS>MOLECULE
ZINC01530596
 41 43 0 0 0
SMALL
GASTEIGER

@<TRIPOS>ATOM
      1 C           5.9342   -0.9927    5.1729 C.3     1  UNL1       -0.0409
      2 C           5.4398   -0.5892    3.8076 C.2     1  UNL1       -0.0396
      3 CA          5.2961    0.7107    3.6098 C.2     1  UNL1        0.0596
      4 N           4.7904    1.1958    2.3861 N.am    1  UNL1       -0.2534
      5 C           4.7556    0.4508    1.0920 C.3     1  UNL1        0.1041
      6 H           5.6715    0.4524    0.5011 H       1  UNL1        0.0644
      7 CA          3.7243    1.5049    0.7249 C.3     1  UNL1        0.1285
      8 HA          3.9642    2.0448   -0.1911 H       1  UNL1        0.0622
      9 C           4.0895    2.2660    1.9798 C.2     1  UNL1        0.2438
     10 O           3.8519    3.3684    2.4263 O.2     1  UNL1       -0.2731
     11 N           2.3499    0.9978    0.7353 N.am    1  UNL1       -0.2968
     12 C           1.4011    1.6074   -0.0027 C.2     1  UNL1        0.2665
     13 O           1.6851    2.5758   -0.6754 O.2     1  UNL1       -0.2692
     14 CA         -0.0127    1.0858    0.0080 C.3     1  UNL1        0.0789
     15 HA          0.0021   -0.0041    0.0020 H       1  UNL1        0.1002
     16 C          -0.7181    1.5718    1.2479 C.ar    1  UNL1        0.0091
     17 C          -1.2231    2.8577    1.2966 C.ar    1  UNL1       -0.0528
     18 C          -1.8740    3.3020    2.4323 C.ar    1  UNL1       -0.0613
     19 C          -2.0114    2.4637    3.5228 C.ar    1  UNL1       -0.0617
     20 C          -1.5021    1.1794    3.4759 C.ar    1  UNL1       -0.0613
     21 C          -0.8551    0.7336    2.3386 C.ar    1  UNL1       -0.0528
     22 H1         -0.7506    2.5809   -1.1997 H       1  UNL1        0.2005
     23 H2         -0.3076    1.2072   -2.0259 H       1  UNL1        0.2005
     24 S           4.0853   -1.1986    1.4921 S.3     1  UNL1       -0.1312
     25 C           5.1765   -1.7101    2.8555 C.3     1  UNL1        0.0184
     26 C           5.6677    1.6588    4.6756 C.2     1  UNL1        0.0859
     27 O           5.5378    2.8538    4.4981 O.co2   1  UNL1       -0.5433
     28 H           6.0148   -2.0785    5.2239 H       1  UNL1        0.0275
     29 H           6.9127   -0.5470    5.3514 H       1  UNL1        0.0275
     30 H           5.2325   -0.6445    5.9309 H       1  UNL1        0.0275
     31 H           2.1228    0.2233    1.2733 H       1  UNL1        0.1497
     32 H          -1.1122    3.5140    0.4461 H       1  UNL1        0.0622
     33 H          -2.2722    4.3053    2.4689 H       1  UNL1        0.0618
     34 H          -2.5170    2.8120    4.4114 H       1  UNL1        0.0618
     35 H          -1.6095    0.5245    4.3279 H       1  UNL1        0.0618
     36 H          -0.4569   -0.2696    2.3020 H       1  UNL1        0.0622
     37 H           4.7075   -2.5322    3.3961 H       1  UNL1        0.0423
     38 H           6.1248   -2.0530    2.4417 H       1  UNL1        0.0423
     39 N          -0.7461    1.5625   -1.1779 N.4     1  UNL1        0.2307
     40 H3         -1.7145    1.2240   -1.1344 H       1  UNL1        0.2005
     41 OXT         6.1516    1.2001    5.8469 O.co2   1  UNL1       -0.5433
@<TRIPOS>UNITY_ATOM_ATTR
39 1
charge 1
41 1
charge -1
@<TRIPOS>BOND
     1     1     2    1
     2     1    28    1
     3     1    29    1
     4     1    30    1
     5     2    25    1
     6     2     3    2
     7     3     4    1
     8     3    26    1
     9     4     9   am
    10     4     5    1
    11     5     6    1
    12     5     7    1
    13     5    24    1
    14     7     8    1
    15     7     9    1
    16     7    11    1
    17     9    10    2
    18    11    12   am
    19    11    31    1
    20    12    13    2
    21    12    14    1
    22    14    15    1
    23    14    16    1
    24    14    39    1
    25    16    21   ar
    26    16    17   ar
    27    17    18   ar
    28    17    32    1
    29    18    19   ar
    30    18    33    1
    31    19    20   ar
    32    19    34    1
    33    20    21   ar
    34    20    35    1
    35    21    36    1
    36    22    39    1
    37    23    39    1
    38    24    25    1
    39    25    37    1
    40    25    38    1
    41    26    27   ar
    42    26    41   ar
    43    39    40    1
