@<TRIPOS>MOLECULE
ZINC03995599
 78 79 0 0 0
SMALL
GASTEIGER

@<TRIPOS>ATOM
      1 C           2.3655    7.3576    0.7406 C.3     1  UNL1       -0.0244
      2 C           3.3238    6.6591   -0.2262 C.3     1  UNL1       -0.0326
      3 N           2.9875    5.2312   -0.3030 N.4     1  UNL1        0.2473
      4 C           3.9076    4.5606   -1.2312 C.3     1  UNL1       -0.0326
      5 C           3.6628    3.0509   -1.1903 C.3     1  UNL1       -0.0244
      6 C           3.1103    4.6269    1.0303 C.3     1  UNL1       -0.0138
      7 C           4.5469    4.7862    1.5321 C.3     1  UNL1        0.0522
      8 N           4.6694    4.1835    2.8618 N.am    1  UNL1       -0.3025
      9 C           5.8536    4.2049    3.5049 C.2     1  UNL1        0.2991
     10 O           6.8184    4.7235    2.9825 O.2     1  UNL1       -0.2652
     11 C           5.9786    3.5901    4.8613 C.2     1  UNL1        0.2991
     12 O           5.0138    3.0715    5.3836 O.2     1  UNL1       -0.2652
     13 N           7.1629    3.6116    5.5044 N.am    1  UNL1       -0.3025
     14 C           7.2854    3.0088    6.8340 C.3     1  UNL1        0.0522
     15 C           8.7219    3.1682    7.3358 C.3     1  UNL1       -0.0138
     16 N           8.8448    2.5638    8.6691 N.4     1  UNL1        0.2473
     17 C           7.9246    3.2344    9.5973 C.3     1  UNL1       -0.0326
     18 C           8.2749    4.7216    9.6773 C.3     1  UNL1       -0.0244
     19 C           8.5084    1.1359    8.5923 C.3     1  UNL1       -0.0326
     20 C           9.3598    0.4689    7.5101 C.3     1  UNL1       -0.0244
     21 C          10.2241    2.7168    9.1509 C.3     1  UNL1       -0.0027
     22 C          10.3124    2.2449   10.5794 C.ar    1  UNL1        0.0154
     23 C          10.0783    3.1297   11.6154 C.ar    1  UNL1       -0.0521
     24 C          10.1551    2.6960   12.9256 C.ar    1  UNL1       -0.0612
     25 C          10.4755    1.3795   13.2009 C.ar    1  UNL1       -0.0604
     26 C          10.7149    0.4954   12.1661 C.ar    1  UNL1       -0.0429
     27 C          10.6335    0.9278   10.8542 C.ar    1  UNL1        0.0492
     28 CL         10.9347   -0.1821    9.5538 Cl      1  UNL1       -0.0831
     29 C           1.6082    5.0782   -0.7847 C.3     1  UNL1       -0.0027
     30 C           1.4392    5.8394   -2.0743 C.ar    1  UNL1        0.0154
     31 C           1.0573    7.1677   -2.0481 C.ar    1  UNL1       -0.0521
     32 C           0.9064    7.8672   -3.2307 C.ar    1  UNL1       -0.0612
     33 C           1.1281    7.2363   -4.4408 C.ar    1  UNL1       -0.0604
     34 C           1.5049    5.9070   -4.4685 C.ar    1  UNL1       -0.0429
     35 C           1.6607    5.2075   -3.2848 C.ar    1  UNL1        0.0492
     36 CL          2.1335    3.5375   -3.3188 Cl      1  UNL1       -0.0831
     37 H           2.6150    8.4171    0.7976 H       1  UNL1        0.0281
     38 H           1.3421    7.2440    0.3831 H       1  UNL1        0.0281
     39 H           2.4566    6.9091    1.7299 H       1  UNL1        0.0281
     40 H           4.3473    6.7727    0.1313 H       1  UNL1        0.0812
     41 H           3.2327    7.1076   -1.2155 H       1  UNL1        0.0812
     42 H           3.7361    4.9293   -2.2425 H       1  UNL1        0.0812
     43 H           4.9363    4.7700   -0.9378 H       1  UNL1        0.0812
     44 H           4.2499    2.5664   -1.9705 H       1  UNL1        0.0281
     45 H           3.9600    2.6609   -0.2169 H       1  UNL1        0.0281
     46 H           2.6042    2.8499   -1.3545 H       1  UNL1        0.0281
     47 H           2.4276    5.1244    1.7191 H       1  UNL1        0.0831
     48 H           2.8608    3.5673    0.9734 H       1  UNL1        0.0831
     49 H           5.2296    4.2886    0.8433 H       1  UNL1        0.0515
     50 H           4.7965    5.8457    1.5891 H       1  UNL1        0.0515
     51 H           3.8982    3.7690    3.2793 H       1  UNL1        0.1494
     52 H           7.9341    4.0261    5.0869 H       1  UNL1        0.1494
     53 H           6.6026    3.5064    7.5228 H       1  UNL1        0.0515
     54 H           7.0358    1.9493    6.7771 H       1  UNL1        0.0515
     55 H           9.4047    2.6706    6.6471 H       1  UNL1        0.0831
     56 H           8.9715    4.2277    7.3928 H       1  UNL1        0.0831
     57 H           6.9012    3.1209    9.2399 H       1  UNL1        0.0812
     58 H           8.0158    2.7860   10.5866 H       1  UNL1        0.0812
     59 H           9.2984    4.8351   10.0348 H       1  UNL1        0.0281
     60 H           8.1838    5.1700    8.6880 H       1  UNL1        0.0281
     61 H           7.5922    5.2192   10.3661 H       1  UNL1        0.0281
     62 H           8.7079    0.6634    9.5541 H       1  UNL1        0.0812
     63 H           7.4529    1.0241    8.3446 H       1  UNL1        0.0812
     64 H          10.4119    0.6926    7.6863 H       1  UNL1        0.0281
     65 H           9.2075   -0.6100    7.5416 H       1  UNL1        0.0281
     66 H           9.0664    0.8488    6.5315 H       1  UNL1        0.0281
     67 H          10.8939    2.1222    8.5297 H       1  UNL1        0.0868
     68 H          10.5137    3.7662    9.0963 H       1  UNL1        0.0868
     69 H           9.8320    4.1591   11.4010 H       1  UNL1        0.0623
     70 H           9.9688    3.3867   13.7346 H       1  UNL1        0.0618
     71 H          10.5390    1.0421   14.2249 H       1  UNL1        0.0618
     72 H          10.9659   -0.5328   12.3814 H       1  UNL1        0.0632
     73 H           1.3981    4.0224   -0.9558 H       1  UNL1        0.0868
     74 H           0.9171    5.4699   -0.0384 H       1  UNL1        0.0868
     75 H           0.8800    7.6600   -1.1033 H       1  UNL1        0.0623
     76 H           0.6113    8.9059   -3.2096 H       1  UNL1        0.0618
     77 H           1.0065    7.7823   -5.3646 H       1  UNL1        0.0618
     78 H           1.6774    5.4141   -5.4138 H       1  UNL1        0.0632
@<TRIPOS>UNITY_ATOM_ATTR
3 1
charge 1
16 1
charge 1
@<TRIPOS>BOND
     1     1     2    1
     2     1    37    1
     3     1    38    1
     4     1    39    1
     5     2     3    1
     6     2    40    1
     7     2    41    1
     8     3     4    1
     9     3     6    1
    10     3    29    1
    11     4     5    1
    12     4    42    1
    13     4    43    1
    14     5    44    1
    15     5    45    1
    16     5    46    1
    17     6     7    1
    18     6    47    1
    19     6    48    1
    20     7     8    1
    21     7    49    1
    22     7    50    1
    23     8     9   am
    24     8    51    1
    25     9    10    2
    26     9    11    1
    27    11    12    2
    28    11    13   am
    29    13    14    1
    30    13    52    1
    31    14    15    1
    32    14    53    1
    33    14    54    1
    34    15    16    1
    35    15    55    1
    36    15    56    1
    37    16    17    1
    38    16    19    1
    39    16    21    1
    40    17    18    1
    41    17    57    1
    42    17    58    1
    43    18    59    1
    44    18    60    1
    45    18    61    1
    46    19    20    1
    47    19    62    1
    48    19    63    1
    49    20    64    1
    50    20    65    1
    51    20    66    1
    52    21    22    1
    53    21    67    1
    54    21    68    1
    55    22    27   ar
    56    22    23   ar
    57    23    24   ar
    58    23    69    1
    59    24    25   ar
    60    24    70    1
    61    25    26   ar
    62    25    71    1
    63    26    27   ar
    64    26    72    1
    65    27    28    1
    66    29    30    1
    67    29    73    1
    68    29    74    1
    69    30    35   ar
    70    30    31   ar
    71    31    32   ar
    72    31    75    1
    73    32    33   ar
    74    32    76    1
    75    33    34   ar
    76    33    77    1
    77    34    35   ar
    78    34    78    1
    79    35    36    1
