@<TRIPOS>MOLECULE
ZINC02033841
 49 49 0 0 0
SMALL
GASTEIGER

@<TRIPOS>ATOM
      1 C          -1.1280    3.9460    5.3149 C.3     1  UNL1       -0.0639
      2 C          -0.4047    3.6180    4.0072 C.3     1  UNL1       -0.0400
      3 C          -1.3979    3.6818    2.8451 C.3     1  UNL1        0.0145
      4 N          -0.7340    3.2542    1.6112 N.am    1  UNL1       -0.3000
      5 C          -0.1486    4.2510    0.7112 C.3     1  UNL1        0.0145
      6 C          -1.2456    4.8451   -0.1745 C.3     1  UNL1       -0.0400
      7 C          -0.6149    5.7752   -1.2128 C.3     1  UNL1       -0.0639
      8 C          -0.6617    1.9439    1.3040 C.2     1  UNL1        0.2359
      9 O          -1.2556    1.1293    1.9783 O.2     1  UNL1       -0.2736
     10 C           0.1571    1.4910    0.1227 C.3     1  UNL1        0.1002
     11 H           1.0469    2.1147    0.0368 H       1  UNL1        0.0595
     12 C          -0.6775    1.6145   -1.1537 C.3     1  UNL1       -0.0209
     13 C           0.1587    1.1685   -2.3549 C.3     1  UNL1       -0.0111
     14 C          -0.6633    1.2902   -3.6121 C.2     1  UNL1        0.0418
     15 O          -1.8012    1.6924   -3.5534 O.co2   1  UNL1       -0.5498
     16 N           0.5562    0.0942    0.3119 N.am    1  UNL1       -0.3000
     17 C           1.6589   -0.3805   -0.3007 C.2     1  UNL1        0.2447
     18 O           2.3222    0.3503   -1.0102 O.2     1  UNL1       -0.2702
     19 C           2.0616   -1.7902   -0.1097 C.ar    1  UNL1        0.0367
     20 C           1.3054   -2.6305    0.7089 C.ar    1  UNL1       -0.0496
     21 C           1.6838   -3.9463    0.8787 C.ar    1  UNL1       -0.0610
     22 C           2.8163   -4.4304    0.2484 C.ar    1  UNL1       -0.0617
     23 C           3.5736   -3.6012   -0.5599 C.ar    1  UNL1       -0.0610
     24 C           3.2030   -2.2849   -0.7427 C.ar    1  UNL1       -0.0496
     25 H          -1.9268    3.2228    5.4795 H       1  UNL1        0.0230
     26 H          -0.4205    3.9006    6.1428 H       1  UNL1        0.0230
     27 H          -1.5522    4.9483    5.2540 H       1  UNL1        0.0230
     28 H           0.0194    2.6157    4.0680 H       1  UNL1        0.0278
     29 H           0.3941    4.3411    3.8425 H       1  UNL1        0.0278
     30 H          -1.7564    4.7046    2.7292 H       1  UNL1        0.0464
     31 H          -2.2411    3.0225    3.0512 H       1  UNL1        0.0464
     32 H           0.3134    5.0443    1.2988 H       1  UNL1        0.0464
     33 H           0.6065    3.7760    0.0848 H       1  UNL1        0.0464
     34 H          -1.7777    4.0409   -0.6827 H       1  UNL1        0.0278
     35 H          -1.9445    5.4100    0.4424 H       1  UNL1        0.0278
     36 H           0.0839    5.2103   -1.8297 H       1  UNL1        0.0230
     37 H          -1.3965    6.1985   -1.8438 H       1  UNL1        0.0230
     38 H          -0.0829    6.5794   -0.7046 H       1  UNL1        0.0230
     39 H          -1.5620    0.9828   -1.0720 H       1  UNL1        0.0291
     40 H          -0.9832    2.6520   -1.2889 H       1  UNL1        0.0291
     41 H           1.0432    1.8002   -2.4365 H       1  UNL1        0.0325
     42 H           0.4644    0.1310   -2.2196 H       1  UNL1        0.0325
     43 H           0.0269   -0.4890    0.8781 H       1  UNL1        0.1498
     44 H           0.4237   -2.2526    1.2051 H       1  UNL1        0.0625
     45 H           1.0971   -4.5987    1.5083 H       1  UNL1        0.0618
     46 H           3.1104   -5.4602    0.3876 H       1  UNL1        0.0618
     47 H           4.4565   -3.9853   -1.0491 H       1  UNL1        0.0618
     48 H           3.7949   -1.6387   -1.3739 H       1  UNL1        0.0625
     49 O          -0.1314    0.9518   -4.7971 O.co2   1  UNL1       -0.5498
@<TRIPOS>UNITY_ATOM_ATTR
49 1
charge -1
@<TRIPOS>BOND
     1     1     2    1
     2     1    25    1
     3     1    26    1
     4     1    27    1
     5     2     3    1
     6     2    28    1
     7     2    29    1
     8     3     4    1
     9     3    30    1
    10     3    31    1
    11     4     5    1
    12     4     8   am
    13     5     6    1
    14     5    32    1
    15     5    33    1
    16     6     7    1
    17     6    34    1
    18     6    35    1
    19     7    36    1
    20     7    37    1
    21     7    38    1
    22     8     9    2
    23     8    10    1
    24    10    11    1
    25    10    12    1
    26    10    16    1
    27    12    13    1
    28    12    39    1
    29    12    40    1
    30    13    14    1
    31    13    41    1
    32    13    42    1
    33    14    15   ar
    34    14    49   ar
    35    16    17   am
    36    16    43    1
    37    17    18    2
    38    17    19    1
    39    19    24   ar
    40    19    20   ar
    41    20    21   ar
    42    20    44    1
    43    21    22   ar
    44    21    45    1
    45    22    23   ar
    46    22    46    1
    47    23    24   ar
    48    23    47    1
    49    24    48    1
