@<TRIPOS>MOLECULE
ZINC11592764
 22 23 0 0 0
SMALL
GASTEIGER

@<TRIPOS>ATOM
      1 C          -1.0734    3.6711    2.2877 C.3     1  UNL1        0.0767
      2 C           0.1691    3.1396    3.0258 C.3     1  UNL1        0.1071
      3 H          -0.0995    2.7987    4.0256 H       1  UNL1        0.0643
      4 C           0.6555    1.9523    2.1637 C.3     1  UNL1        0.1166
      5 H           1.0560    1.1228    2.7465 H       1  UNL1        0.0650
      6 C          -0.6202    1.6098    1.3282 C.3     1  UNL1        0.1331
      7 H          -1.2805    0.8918    1.8147 H       1  UNL1        0.0663
      8 O          -1.2264    2.8928    1.0906 O.3     1  UNL1       -0.3673
      9 C          -0.0127    1.0858    0.0080 C.3     1  UNL1        0.2283
     10 H           0.0021   -0.0041    0.0020 H       1  UNL1        0.0858
     11 C           1.4241    1.6436   -0.0027 C.3     1  UNL1        0.0947
     12 O           1.5721    2.4583    1.1711 O.3     1  UNL1       -0.3672
     13 O          -0.7481    1.5799   -1.1132 O.2     1  UNL1       -0.2081
     14 N          -0.6219    0.7869   -2.2795 N.pl3   1  UNL1        0.2847
     15 O           0.0685   -0.2164   -2.2620 O.2     1  UNL1        0.0934
     16 O          -1.2037    1.1081   -3.3002 O.co2   1  UNL1       -0.5338
     17 O           1.1770    4.1502    3.0964 O.3     1  UNL1       -0.3869
     18 H          -1.9553    3.5581    2.9182 H       1  UNL1        0.0586
     19 H          -0.9312    4.7209    2.0313 H       1  UNL1        0.0586
     20 H           2.1408    0.8227    0.0227 H       1  UNL1        0.0600
     21 H           1.5806    2.2482   -0.8960 H       1  UNL1        0.0600
     22 H           0.9259    4.9198    3.6253 H       1  UNL1        0.2100
@<TRIPOS>UNITY_ATOM_ATTR
14 1
charge 1
16 1
charge -1
@<TRIPOS>BOND
     1     1     8    1
     2     1     2    1
     3     1    18    1
     4     1    19    1
     5     2     3    1
     6     2     4    1
     7     2    17    1
     8     4     5    1
     9     4    12    1
    10     4     6    1
    11     6     7    1
    12     6     8    1
    13     6     9    1
    14     9    10    1
    15     9    11    1
    16     9    13    1
    17    11    12    1
    18    11    20    1
    19    11    21    1
    20    13    14    1
    21    14    15    2
    22    14    16    1
    23    17    22    1
