@<TRIPOS>MOLECULE
ZINC00896924
 23 24 0 0 0
SMALL
GASTEIGER

@<TRIPOS>ATOM
      1 C          -3.8889   -1.2316   -1.0885 C.ar    1  UNL1       -0.0141
      2 C          -4.7511   -1.3554    0.0043 C.ar    1  UNL1        0.0934
      3 C          -4.5706   -0.5043    1.1005 C.ar    1  UNL1        0.1357
      4 C          -3.5796    0.4431    1.1093 C.ar    1  UNL1       -0.0052
      5 C          -2.7327    0.5596    0.0181 C.ar    1  UNL1        0.1252
      6 C          -2.8940   -0.2753   -1.0750 C.ar    1  UNL1        0.0694
      7 CL         -1.8302   -0.1220   -2.4383 Cl      1  UNL1       -0.0815
      8 S          -1.4563    1.7742    0.0186 S.O2    1  UNL1        0.0574
      9 O          -1.5359    2.4465    1.2680 O.2     1  UNL1       -0.1532
     10 O          -1.5477    2.4600   -1.2226 O.2     1  UNL1       -0.1532
     11 N          -0.0111    0.9658    0.0074 N.3     1  UNL1       -0.2035
     12 S          -5.6645   -0.7092    2.4762 S.O2    1  UNL1        0.0751
     13 O          -5.0598   -1.6450    3.3583 O.2     1  UNL1       -0.1499
     14 O          -6.0728    0.5889    2.8855 O.2     1  UNL1       -0.1499
     15 N          -6.9979   -1.4569    1.8007 N.pl3   1  UNL1       -0.2058
     16 C          -6.7489   -2.3635    0.7987 C.2     1  UNL1        0.1015
     17 N          -5.7489   -2.2822   -0.0044 N.2     1  UNL1       -0.2371
     18 H          -4.0039   -1.8804   -1.9442 H       1  UNL1        0.0654
     19 H          -3.4596    1.0954    1.9617 H       1  UNL1        0.0658
     20 H           0.0021   -0.0041    0.0020 H       1  UNL1        0.1442
     21 H           0.8223    1.4622    0.0021 H       1  UNL1        0.1442
     22 H          -7.8996   -1.2609    2.0999 H       1  UNL1        0.1747
     23 H          -7.4320   -3.1915    0.6794 H       1  UNL1        0.1013
@<TRIPOS>BOND
     1     1     6   ar
     2     1     2   ar
     3     1    18    1
     4     2    17    1
     5     2     3   ar
     6     3     4   ar
     7     3    12    1
     8     4     5   ar
     9     4    19    1
    10     5     6   ar
    11     5     8    1
    12     6     7    1
    13     8     9    2
    14     8    10    2
    15     8    11    1
    16    11    20    1
    17    11    21    1
    18    12    13    2
    19    12    14    2
    20    12    15    1
    21    15    16    1
    22    15    22    1
    23    16    17    2
    24    16    23    1
