@<TRIPOS>MOLECULE
ZINC00968277
 58 61 0 0 0
SMALL
GASTEIGER

@<TRIPOS>ATOM
      1 C          13.2477   -4.5211   -5.4568 C.3     1  UNL1       -0.0359
      2 C          13.0506   -3.9827   -4.0631 C.ar    1  UNL1       -0.0024
      3 C          11.8914   -3.3069   -3.7410 C.ar    1  UNL1       -0.0021
      4 C          11.7036   -2.8087   -2.4561 C.ar    1  UNL1        0.1282
      5 C          12.6840   -2.9941   -1.4970 C.ar    1  UNL1        0.0011
      6 C          13.8479   -3.6700   -1.8218 C.ar    1  UNL1       -0.0021
      7 C          14.0340   -4.1651   -3.1026 C.ar    1  UNL1        0.1234
      8 O          15.1784   -4.8290   -3.4167 O.3     1  UNL1       -0.5062
      9 C          14.9166   -3.8683   -0.7779 C.3     1  UNL1       -0.0359
     10 C          12.5161   -2.4750   -0.0913 C.3     1  UNL1       -0.0201
     11 C          11.4136   -1.4139   -0.0611 C.3     1  UNL1       -0.0058
     12 C          10.1933   -1.9655   -0.8095 C.3     1  UNL1        0.1418
     13 O          10.5489   -2.1462   -2.1809 O.3     1  UNL1       -0.4820
     14 C           9.7805   -3.3081   -0.2030 C.3     1  UNL1       -0.0217
     15 C           9.0328   -0.9740   -0.7043 C.3     1  UNL1        0.1288
     16 O           7.8687   -1.5371   -1.3124 O.3     1  UNL1       -0.4880
     17 C           6.7407   -0.7792   -1.3045 C.ar    1  UNL1        0.1207
     18 C           5.5739   -1.2639   -1.8774 C.ar    1  UNL1       -0.0197
     19 C           4.4286   -0.4914   -1.8685 C.ar    1  UNL1       -0.0551
     20 C           4.4448    0.7641   -1.2895 C.ar    1  UNL1       -0.0456
     21 C           5.6079    1.2518   -0.7229 C.ar    1  UNL1       -0.0551
     22 C           6.7541    0.4807   -0.7238 C.ar    1  UNL1       -0.0197
     23 C           3.1942    1.6049   -1.2816 C.3     1  UNL1       -0.0069
     24 C           2.3900    1.3110   -0.0137 C.3     1  UNL1        0.0945
     25 H           2.9793    1.5110    0.8812 H       1  UNL1        0.0515
     26 C           1.0787    2.0834    0.0029 C.2     1  UNL1        0.2336
     27 O           1.0405    3.2952    0.0094 O.2     1  UNL1       -0.2741
     28 N          -0.0162    1.3417    0.0094 N.am    1  UNL1       -0.2463
     29 C           0.0021   -0.0041    0.0020 C.2     1  UNL1        0.2789
     30 O          -0.9447   -0.7667    0.0073 O.2     1  UNL1       -0.2625
     31 S           1.7424   -0.4083   -0.0167 S.3     1  UNL1       -0.0542
     32 C          10.8237   -3.1086   -4.7859 C.3     1  UNL1       -0.0359
     33 H          12.8570   -5.5372   -5.5124 H       1  UNL1        0.0279
     34 H          12.7179   -3.8886   -6.1690 H       1  UNL1        0.0279
     35 H          14.3109   -4.5271   -5.6969 H       1  UNL1        0.0279
     36 H          15.1331   -5.7834   -3.2675 H       1  UNL1        0.2922
     37 H          14.7369   -4.8033   -0.2472 H       1  UNL1        0.0279
     38 H          15.8932   -3.9063   -1.2605 H       1  UNL1        0.0279
     39 H          14.8925   -3.0389   -0.0711 H       1  UNL1        0.0279
     40 H          12.2442   -3.2983    0.5693 H       1  UNL1        0.0316
     41 H          13.4537   -2.0339    0.2469 H       1  UNL1        0.0316
     42 H          11.7654   -0.5059   -0.5508 H       1  UNL1        0.0308
     43 H          11.1427   -1.1938    0.9715 H       1  UNL1        0.0308
     44 H           8.9191   -3.7012   -0.7430 H       1  UNL1        0.0269
     45 H          10.6094   -4.0117   -0.2797 H       1  UNL1        0.0269
     46 H           9.5187   -3.1679    0.8458 H       1  UNL1        0.0269
     47 H           9.2982   -0.0486   -1.2155 H       1  UNL1        0.0737
     48 H           8.8287   -0.7636    0.3455 H       1  UNL1        0.0737
     49 H           5.5609   -2.2443   -2.3303 H       1  UNL1        0.0654
     50 H           3.5201   -0.8683   -2.3144 H       1  UNL1        0.0621
     51 H           5.6192    2.2347   -0.2755 H       1  UNL1        0.0621
     52 H           7.6613    0.8604   -0.2775 H       1  UNL1        0.0654
     53 H           2.5909    1.3671   -2.1578 H       1  UNL1        0.0329
     54 H           3.4658    2.6603   -1.3031 H       1  UNL1        0.0329
     55 H          -0.8761    1.7904    0.0158 H       1  UNL1        0.1583
     56 H          11.0046   -2.1743   -5.3175 H       1  UNL1        0.0279
     57 H          10.8475   -3.9387   -5.4918 H       1  UNL1        0.0279
     58 H           9.8467   -3.0692   -4.3042 H       1  UNL1        0.0279
@<TRIPOS>BOND
     1     1     2    1
     2     1    33    1
     3     1    34    1
     4     1    35    1
     5     2     7   ar
     6     2     3   ar
     7     3     4   ar
     8     3    32    1
     9     4    13    1
    10     4     5   ar
    11     5     6   ar
    12     5    10    1
    13     6     7   ar
    14     6     9    1
    15     7     8    1
    16     8    36    1
    17     9    37    1
    18     9    38    1
    19     9    39    1
    20    10    11    1
    21    10    40    1
    22    10    41    1
    23    11    12    1
    24    11    42    1
    25    11    43    1
    26    12    13    1
    27    12    14    1
    28    12    15    1
    29    14    44    1
    30    14    45    1
    31    14    46    1
    32    15    16    1
    33    15    47    1
    34    15    48    1
    35    16    17    1
    36    17    22   ar
    37    17    18   ar
    38    18    19   ar
    39    18    49    1
    40    19    20   ar
    41    19    50    1
    42    20    21   ar
    43    20    23    1
    44    21    22   ar
    45    21    51    1
    46    22    52    1
    47    23    24    1
    48    23    53    1
    49    23    54    1
    50    24    25    1
    51    24    31    1
    52    24    26    1
    53    26    27    2
    54    26    28   am
    55    28    29   am
    56    28    55    1
    57    29    30    2
    58    29    31    1
    59    32    56    1
    60    32    57    1
    61    32    58    1
