@<TRIPOS>MOLECULE
ZINC08101118
 75 77 0 0 0
SMALL
GASTEIGER

@<TRIPOS>ATOM
      1 C          -4.8915   -1.7020    3.1887 C.3     1  UNL1       -0.0285
      2 C          -3.9588   -2.5681    2.3398 C.3     1  UNL1        0.1311
      3 C          -2.5461   -1.9787    2.3664 C.3     1  UNL1        0.0846
      4 O          -2.5656   -0.6721    1.7880 O.3     1  UNL1       -0.3455
      5 C          -2.9842   -0.6450    0.4219 C.3     1  UNL1        0.1911
      6 H          -2.3181   -1.2679   -0.1751 H       1  UNL1        0.0939
      7 C          -4.4145   -1.1807    0.3172 C.3     1  UNL1        0.1509
      8 H          -4.7198   -1.2022   -0.7289 H       1  UNL1        0.0703
      9 C          -4.4636   -2.5990    0.8940 C.3     1  UNL1        0.0397
     10 H          -3.8300   -3.2567    0.2990 H       1  UNL1        0.0907
     11 C          -6.1703   -3.6814   -0.4396 C.3     1  UNL1       -0.0444
     12 O          -5.2970   -0.3339    1.0562 O.3     1  UNL1       -0.3812
     13 O          -2.9420    0.6987   -0.0628 O.3     1  UNL1       -0.3371
     14 C          -1.6204    1.2214   -0.2122 C.3     1  UNL1        0.1325
     15 H          -0.9325    0.6547    0.4152 H       1  UNL1        0.0681
     16 C          -1.6028    2.6917    0.2106 C.3     1  UNL1        0.0104
     17 H          -0.5948    3.0904    0.0967 H       1  UNL1        0.0878
     18 C          -2.5684    3.4872   -0.6701 C.3     1  UNL1        0.0381
     19 C          -2.1368    3.3721   -2.1334 C.3     1  UNL1        0.0104
     20 H          -1.1288    3.7708   -2.2473 H       1  UNL1        0.0878
     21 C          -2.1545    1.9018   -2.5562 C.3     1  UNL1        0.1326
     22 H          -1.8470    1.8198   -3.5987 H       1  UNL1        0.0681
     23 C          -1.1888    1.1063   -1.6755 C.3     1  UNL1        0.1181
     24 H          -0.1808    1.5050   -1.7894 H       1  UNL1        0.0649
     25 O          -1.2053   -0.2670   -2.0704 O.3     1  UNL1       -0.3862
     26 O          -3.4760    1.3790   -2.4068 O.3     1  UNL1       -0.3348
     27 C          -4.2496    1.4027   -3.6081 C.3     1  UNL1        0.2034
     28 H          -4.1745    2.3873   -4.0695 H       1  UNL1        0.0969
     29 C          -5.7143    1.1037   -3.2780 C.3     1  UNL1        0.0279
     30 H          -6.1062    1.8817   -2.6229 H       1  UNL1        0.0900
     31 C          -6.5259    1.0713   -4.5767 C.3     1  UNL1       -0.0025
     32 C          -5.9180    0.0287   -5.5199 C.3     1  UNL1       -0.0162
     33 C          -4.4454    0.3692   -5.7634 C.3     1  UNL1        0.1015
     34 H          -4.3729    1.3402   -6.2532 H       1  UNL1        0.0651
     35 O          -3.7551    0.4134   -4.5130 O.3     1  UNL1       -0.3378
     36 C          -3.8151   -0.7012   -6.6567 C.3     1  UNL1       -0.0084
     37 O          -3.9317   -3.8970    2.8646 O.3     1  UNL1       -0.3809
     38 H          -5.9230   -2.0177    3.0323 H       1  UNL1        0.0260
     39 H          -4.6331   -1.8139    4.2417 H       1  UNL1        0.0260
     40 H          -4.7831   -0.6574    2.8970 H       1  UNL1        0.0260
     41 H          -2.1982   -1.9147    3.3974 H       1  UNL1        0.0591
     42 H          -1.8742   -2.6193    1.7951 H       1  UNL1        0.0591
     43 H          -7.1999   -4.0390   -0.4322 H       1  UNL1        0.0777
     44 H          -6.0534   -2.9265   -1.2171 H       1  UNL1        0.0777
     45 H          -5.4974   -4.5155   -0.6389 H       1  UNL1        0.0777
     46 H          -5.3127    0.5825    0.7478 H       1  UNL1        0.2103
     47 H          -3.5765    3.0885   -0.5562 H       1  UNL1        0.0377
     48 H          -2.5559    4.5347   -0.3689 H       1  UNL1        0.0377
     49 H          -0.6149   -0.8320   -1.5534 H       1  UNL1        0.2100
     50 H          -6.4958    2.0527   -5.0501 H       1  UNL1        0.0322
     51 H          -7.5594    0.8046   -4.3558 H       1  UNL1        0.0322
     52 H          -6.4556    0.0379   -6.4681 H       1  UNL1        0.0294
     53 H          -5.9933   -0.9604   -5.0681 H       1  UNL1        0.0294
     54 H          -3.8882   -1.6722   -6.1669 H       1  UNL1        0.0839
     55 H          -4.3418   -0.7348   -7.6104 H       1  UNL1        0.0839
     56 H          -1.9627   -1.0676   -7.4768 H       1  UNL1        0.1995
     57 H          -2.3040    0.5485   -7.2835 H       1  UNL1        0.1995
     58 H          -6.7735   -0.4566   -2.4522 H       1  UNL1        0.1999
     59 H          -5.3250   -0.9125   -3.1304 H       1  UNL1        0.1999
     60 H          -3.0705    5.1109   -2.7193 H       1  UNL1        0.1998
     61 H          -2.8386    4.0234   -3.9560 H       1  UNL1        0.1998
     62 H          -2.0137    3.7646    1.9189 H       1  UNL1        0.1998
     63 H          -2.9226    2.3809    1.7597 H       1  UNL1        0.1998
     64 H          -3.6213   -3.9526    3.7788 H       1  UNL1        0.2105
     65 N          -5.8537   -3.0922    0.8751 N.4     1  UNL1        0.2310
     66 H          -6.4931   -2.3100    1.0586 H       1  UNL1        0.2015
     67 H          -5.9695   -3.8068    1.6033 H       1  UNL1        0.2015
     68 N          -2.3931   -0.3760   -6.8652 N.4     1  UNL1        0.2204
     69 H          -1.9092   -0.3821   -5.9597 H       1  UNL1        0.1995
     70 N          -5.7983   -0.1940   -2.5850 N.4     1  UNL1        0.2243
     71 H          -5.3443   -0.1166   -1.6673 H       1  UNL1        0.1999
     72 N          -3.0858    4.1245   -2.9730 N.4     1  UNL1        0.2228
     73 H          -4.0326    3.7554   -2.8260 H       1  UNL1        0.1998
     74 N          -1.9987    2.7889    1.6266 N.4     1  UNL1        0.2228
     75 H          -1.3203    2.2770    2.2027 H       1  UNL1        0.1998
@<TRIPOS>UNITY_ATOM_ATTR
65 1
charge 1
68 1
charge 1
70 1
charge 1
72 1
charge 1
74 1
charge 1
@<TRIPOS>BOND
     1     1     2    1
     2     1    38    1
     3     1    39    1
     4     1    40    1
     5     2     9    1
     6     2     3    1
     7     2    37    1
     8     3     4    1
     9     3    41    1
    10     3    42    1
    11     4     5    1
    12     5     6    1
    13     5     7    1
    14     5    13    1
    15     7     8    1
    16     7     9    1
    17     7    12    1
    18     9    10    1
    19     9    65    1
    20    11    43    1
    21    11    44    1
    22    11    45    1
    23    11    65    1
    24    12    46    1
    25    13    14    1
    26    14    15    1
    27    14    23    1
    28    14    16    1
    29    16    17    1
    30    16    18    1
    31    16    74    1
    32    18    19    1
    33    18    47    1
    34    18    48    1
    35    19    20    1
    36    19    21    1
    37    19    72    1
    38    21    22    1
    39    21    23    1
    40    21    26    1
    41    23    24    1
    42    23    25    1
    43    25    49    1
    44    26    27    1
    45    27    28    1
    46    27    35    1
    47    27    29    1
    48    29    30    1
    49    29    31    1
    50    29    70    1
    51    31    32    1
    52    31    50    1
    53    31    51    1
    54    32    33    1
    55    32    52    1
    56    32    53    1
    57    33    34    1
    58    33    35    1
    59    33    36    1
    60    36    54    1
    61    36    55    1
    62    36    68    1
    63    37    64    1
    64    56    68    1
    65    57    68    1
    66    58    70    1
    67    59    70    1
    68    60    72    1
    69    61    72    1
    70    62    74    1
    71    63    74    1
    72    65    66    1
    73    65    67    1
    74    68    69    1
    75    70    71    1
    76    72    73    1
    77    74    75    1
