@<TRIPOS>MOLECULE
ZINC01851194
 40 42 0 0 0
SMALL
GASTEIGER

@<TRIPOS>ATOM
      1 C           4.6577    9.8708   -2.1945 C.ar    1  UNL1       -0.0617
      2 C           3.5855    9.4210   -2.9421 C.ar    1  UNL1       -0.0613
      3 C           2.3437    9.2767   -2.3522 C.ar    1  UNL1       -0.0528
      4 C           2.1743    9.5812   -1.0145 C.ar    1  UNL1        0.0091
      5 C           3.2455   10.0355   -0.2681 C.ar    1  UNL1       -0.0528
      6 C           4.4883   10.1757   -0.8569 C.ar    1  UNL1       -0.0613
      7 CA          0.8206    9.4237   -0.3714 C.3     1  UNL1        0.0789
      8 HA          0.0507    9.4135   -1.1430 H       1  UNL1        0.1002
      9 C           0.7776    8.1288    0.3983 C.2     1  UNL1        0.2665
     10 O           0.9321    8.1330    1.6012 O.2     1  UNL1       -0.2692
     11 N           0.5674    6.9661   -0.2501 N.am    1  UNL1       -0.2974
     12 CA          0.5256    5.7073    0.4981 C.3     1  UNL1        0.1191
     13 HA          0.1934    5.8302    1.5289 H       1  UNL1        0.0614
     14 C          -0.1577    4.5751   -0.2386 C.3     1  UNL1        0.0584
     15 H          -0.3547    4.7684   -1.2930 H       1  UNL1        0.0528
     16 C          -1.3007    3.8653    0.5052 C.3     1  UNL1       -0.0268
     17 C          -1.3525    2.4137    0.0218 C.3     1  UNL1       -0.0134
     18 C          -0.0215    1.7317    0.0116 C.2     1  UNL1        0.0416
     19 CA          1.1576    2.3769    0.0038 C.2     1  UNL1        0.0734
     20 N           1.0681    3.7869    0.0420 N.am    1  UNL1       -0.2619
     21 C           1.7641    4.8654    0.3501 C.2     1  UNL1        0.2423
     22 O           2.9499    5.0916    0.4686 O.2     1  UNL1       -0.2731
     23 C           2.4459    1.6680   -0.0417 C.2     1  UNL1        0.0870
     24 O           3.4859    2.2970   -0.0470 O.co2   1  UNL1       -0.5433
     25 CL          0.0021   -0.0041    0.0020 Cl      1  UNL1       -0.0863
     26 H           5.6279    9.9835   -2.6554 H       1  UNL1        0.0618
     27 H           3.7178    9.1828   -3.9871 H       1  UNL1        0.0618
     28 H           1.5059    8.9256   -2.9364 H       1  UNL1        0.0622
     29 H           3.1122   10.2776    0.7760 H       1  UNL1        0.0622
     30 H           5.3261   10.5268   -0.2727 H       1  UNL1        0.0618
     31 H           0.4438    6.9628   -1.2122 H       1  UNL1        0.1497
     32 H          -1.1138    3.8927    1.5787 H       1  UNL1        0.0287
     33 H          -2.2465    4.3599    0.2839 H       1  UNL1        0.0287
     34 H          -1.7605    2.3945   -0.9888 H       1  UNL1        0.0323
     35 H          -2.0237    1.8557    0.6747 H       1  UNL1        0.0323
     36 H1         -0.3468   10.4984    0.9404 H       1  UNL1        0.2005
     37 H2          1.2813   10.5775    1.2702 H       1  UNL1        0.2005
     38 OXT         2.4729    0.3206   -0.0774 O.co2   1  UNL1       -0.5433
     39 N           0.5827   10.5657    0.5290 N.4     1  UNL1        0.2307
     40 H3          0.6490   11.4384   -0.0079 H       1  UNL1        0.2005
@<TRIPOS>UNITY_ATOM_ATTR
38 1
charge -1
39 1
charge 1
@<TRIPOS>BOND
     1     1     6   ar
     2     1     2   ar
     3     1    26    1
     4     2     3   ar
     5     2    27    1
     6     3     4   ar
     7     3    28    1
     8     4     5   ar
     9     4     7    1
    10     5     6   ar
    11     5    29    1
    12     6    30    1
    13     7     8    1
    14     7     9    1
    15     7    39    1
    16     9    10    2
    17     9    11   am
    18    11    12    1
    19    11    31    1
    20    12    13    1
    21    12    21    1
    22    12    14    1
    23    14    15    1
    24    14    20    1
    25    14    16    1
    26    16    17    1
    27    16    32    1
    28    16    33    1
    29    17    18    1
    30    17    34    1
    31    17    35    1
    32    18    19    2
    33    18    25    1
    34    19    20    1
    35    19    23    1
    36    20    21   am
    37    21    22    2
    38    23    24   ar
    39    23    38   ar
    40    36    39    1
    41    37    39    1
    42    39    40    1
