@<TRIPOS>MOLECULE
ZINC02040149
 29 29 0 0 0
SMALL
GASTEIGER

@<TRIPOS>ATOM
      1 C          -0.4026    9.3855   -2.7232 C.3     1  UNL1       -0.0245
      2 C          -0.5093    7.8594   -2.7467 C.3     1  UNL1       -0.0365
      3 C          -0.3478    5.8639   -1.3849 C.3     1  UNL1       -0.0028
      4 C          -0.0759    5.3505    0.0305 C.3     1  UNL1        0.1198
      5 H           0.8868    5.7278    0.3752 H       1  UNL1        0.0698
      6 C          -0.0511    3.8437    0.0222 C.ar    1  UNL1       -0.0106
      7 C          -1.2374    3.1332    0.0297 C.ar    1  UNL1       -0.0557
      8 C          -1.2180    1.7509    0.0173 C.ar    1  UNL1       -0.0580
      9 C          -0.0126    1.0758    0.0080 C.ar    1  UNL1       -0.0202
     10 C           1.1788    1.7862    0.0004 C.ar    1  UNL1        0.1172
     11 C           1.1566    3.1736    0.0076 C.ar    1  UNL1       -0.0144
     12 O           2.3657    1.1246   -0.0145 O.3     1  UNL1       -0.5068
     13 O          -1.1077    5.8051    0.9085 O.3     1  UNL1       -0.3819
     14 H           0.5983    9.6748   -2.4030 H       1  UNL1        0.0281
     15 H          -0.5924    9.7784   -3.7220 H       1  UNL1        0.0281
     16 H          -1.1378    9.7904   -2.0277 H       1  UNL1        0.0281
     17 H           0.2258    7.4544   -3.4422 H       1  UNL1        0.0811
     18 H          -1.5103    7.5700   -3.0668 H       1  UNL1        0.0811
     19 H           0.3885    5.4451   -2.0709 H       1  UNL1        0.0843
     20 H          -1.3476    5.5607   -1.6956 H       1  UNL1        0.0843
     21 H          -2.1807    3.6590    0.0412 H       1  UNL1        0.0621
     22 H          -2.1459    1.1982    0.0191 H       1  UNL1        0.0619
     23 H           0.0021   -0.0041    0.0020 H       1  UNL1        0.0654
     24 H           2.0828    3.7289    0.0021 H       1  UNL1        0.0658
     25 H           2.7008    0.9378   -0.9021 H       1  UNL1        0.2921
     26 H          -1.9938    5.5064    0.6619 H       1  UNL1        0.2105
     27 N          -0.2512    7.3358   -1.3920 N.4     1  UNL1        0.2289
     28 H          -0.9442    7.7239   -0.7413 H       1  UNL1        0.2014
     29 H           0.6911    7.6149   -1.0949 H       1  UNL1        0.2014
@<TRIPOS>UNITY_ATOM_ATTR
27 1
charge 1
@<TRIPOS>BOND
     1     1     2    1
     2     1    14    1
     3     1    15    1
     4     1    16    1
     5     2    17    1
     6     2    18    1
     7     2    27    1
     8     3     4    1
     9     3    19    1
    10     3    20    1
    11     3    27    1
    12     4     5    1
    13     4     6    1
    14     4    13    1
    15     6    11   ar
    16     6     7   ar
    17     7     8   ar
    18     7    21    1
    19     8     9   ar
    20     8    22    1
    21     9    10   ar
    22     9    23    1
    23    10    11   ar
    24    10    12    1
    25    11    24    1
    26    12    25    1
    27    13    26    1
    28    27    28    1
    29    27    29    1
