@<TRIPOS>MOLECULE
ZINC11616175
 64 67 0 0 0
SMALL
GASTEIGER

@<TRIPOS>ATOM
      1 C          -2.6121    0.1259   -0.7575 C.3     1  UNL1       -0.0562
      2 C          -2.1153    1.5730   -0.7531 C.3     1  UNL1        0.0092
      3 C          -3.0050    2.4286   -1.6380 C.3     1  UNL1       -0.0178
      4 C          -2.5309    2.2690   -3.0896 C.3     1  UNL1        0.0600
      5 H          -3.3788    2.3955   -3.7628 H       1  UNL1        0.0596
      6 C          -1.9232    0.8794   -3.2944 C.3     1  UNL1        0.0007
      7 H          -2.6169    0.1817   -2.8252 H       1  UNL1        0.0340
      8 C          -0.6075    0.7502   -2.5443 C.3     1  UNL1       -0.0311
      9 H          -0.4710   -0.2868   -2.2375 H       1  UNL1        0.0308
     10 C          -0.6699    1.6382   -1.3102 C.3     1  UNL1       -0.0292
     11 H          -0.3836    2.6610   -1.5553 H       1  UNL1        0.0310
     12 C           0.1561    1.1081   -0.1271 C.3     1  UNL1       -0.0463
     13 C          -0.5203    1.7571    1.1071 C.3     1  UNL1       -0.0161
     14 C          -1.9739    2.0867    0.6816 C.3     1  UNL1        0.1326
     15 C          -2.2030    3.5755    0.7259 C.2     1  UNL1        0.2022
     16 O          -1.2805    4.3340    0.5467 O.2     1  UNL1       -0.2907
     17 C          -3.5833    4.1179    0.9937 C.3     1  UNL1        0.1530
     18 O          -3.5430    5.5693    0.9857 O.3     1  UNL1       -0.4568
     19 C          -4.6997    6.2123    1.2102 C.2     1  UNL1        0.3078
     20 O          -5.7123    5.5832    1.4068 O.2     1  UNL1       -0.2508
     21 C          -4.7353    7.7189    1.2169 C.3     1  UNL1        0.0500
     22 C          -6.1630    8.1940    1.4940 C.3     1  UNL1       -0.0031
     23 C          -6.1986    9.7006    1.5007 C.2     1  UNL1        0.0423
     24 O          -5.1860   10.3297    1.3041 O.co2   1  UNL1       -0.5498
     25 O          -2.9019    1.4184    1.5384 O.3     1  UNL1       -0.3804
     26 C           0.5638    1.1760   -3.4306 C.3     1  UNL1       -0.0458
     27 C           0.7177    0.1197   -4.5303 C.3     1  UNL1       -0.0302
     28 C          -0.5768    0.0294   -5.2920 C.2     1  UNL1       -0.0559
     29 C          -0.5514   -0.5127   -6.5269 C.2     1  UNL1       -0.0149
     30 C          -1.8649   -0.5881   -7.2197 C.2     1  UNL1        0.1787
     31 O          -1.9909   -0.3668   -8.4096 O.2     1  UNL1       -0.2879
     32 C          -3.0128   -0.9540   -6.3484 C.2     1  UNL1       -0.0180
     33 C          -3.0063   -0.4106   -5.1184 C.2     1  UNL1       -0.0701
     34 C          -1.8764    0.5196   -4.7514 C.3     1  UNL1        0.0131
     35 C          -2.1678    1.8263   -5.4921 C.3     1  UNL1       -0.0520
     36 O          -1.5468    3.2639   -3.3788 O.3     1  UNL1       -0.3914
     37 H          -2.3709   -0.3440    0.1959 H       1  UNL1        0.0236
     38 H          -3.6918    0.1128   -0.9062 H       1  UNL1        0.0236
     39 H          -2.1274   -0.4221   -1.5656 H       1  UNL1        0.0236
     40 H          -2.9265    3.4736   -1.3381 H       1  UNL1        0.0297
     41 H          -4.0396    2.0967   -1.5503 H       1  UNL1        0.0297
     42 H           0.0944    0.0212   -0.0718 H       1  UNL1        0.0269
     43 H           1.1946    1.4290   -0.2091 H       1  UNL1        0.0269
     44 H          -0.5223    1.0578    1.9432 H       1  UNL1        0.0297
     45 H           0.0056    2.6706    1.3845 H       1  UNL1        0.0297
     46 H          -4.2107    3.7980    0.2838 H       1  UNL1        0.0779
     47 H          -3.9280    3.7693    1.9673 H       1  UNL1        0.0779
     48 H          -4.0700    8.0946    1.9943 H       1  UNL1        0.0381
     49 H          -4.4092    8.0943    0.2470 H       1  UNL1        0.0381
     50 H          -6.8282    7.8183    0.7166 H       1  UNL1        0.0330
     51 H          -6.4891    7.8185    2.4639 H       1  UNL1        0.0330
     52 H          -2.8594    1.7023    2.4619 H       1  UNL1        0.2108
     53 H           0.3554    2.1480   -3.8776 H       1  UNL1        0.0271
     54 H           1.4768    1.2285   -2.8375 H       1  UNL1        0.0271
     55 H           1.5211    0.4104   -5.2072 H       1  UNL1        0.0310
     56 H           0.9459   -0.8465   -4.0805 H       1  UNL1        0.0310
     57 H           0.3614   -0.8678   -6.9819 H       1  UNL1        0.0655
     58 H          -3.8008   -1.6130   -6.6818 H       1  UNL1        0.0653
     59 H          -3.7908   -0.6342   -4.4106 H       1  UNL1        0.0582
     60 H          -2.0797    1.6625   -6.5661 H       1  UNL1        0.0241
     61 H          -3.1787    2.1595   -5.2571 H       1  UNL1        0.0241
     62 H          -1.4527    2.5877   -5.1808 H       1  UNL1        0.0241
     63 H          -1.8616    4.1718   -3.2702 H       1  UNL1        0.2098
     64 O          -7.3553   10.3436    1.7251 O.co2   1  UNL1       -0.5498
@<TRIPOS>UNITY_ATOM_ATTR
64 1
charge -1
@<TRIPOS>BOND
     1     1     2    1
     2     1    37    1
     3     1    38    1
     4     1    39    1
     5     2    10    1
     6     2    14    1
     7     2     3    1
     8     3     4    1
     9     3    40    1
    10     3    41    1
    11     4     5    1
    12     4     6    1
    13     4    36    1
    14     6     7    1
    15     6    34    1
    16     6     8    1
    17     8     9    1
    18     8    10    1
    19     8    26    1
    20    10    11    1
    21    10    12    1
    22    12    13    1
    23    12    42    1
    24    12    43    1
    25    13    14    1
    26    13    44    1
    27    13    45    1
    28    14    15    1
    29    14    25    1
    30    15    16    2
    31    15    17    1
    32    17    18    1
    33    17    46    1
    34    17    47    1
    35    18    19    1
    36    19    20    2
    37    19    21    1
    38    21    22    1
    39    21    48    1
    40    21    49    1
    41    22    23    1
    42    22    50    1
    43    22    51    1
    44    23    24   ar
    45    23    64   ar
    46    25    52    1
    47    26    27    1
    48    26    53    1
    49    26    54    1
    50    27    28    1
    51    27    55    1
    52    27    56    1
    53    28    34    1
    54    28    29    2
    55    29    30    1
    56    29    57    1
    57    30    31    2
    58    30    32    1
    59    32    33    2
    60    32    58    1
    61    33    34    1
    62    33    59    1
    63    34    35    1
    64    35    60    1
    65    35    61    1
    66    35    62    1
    67    36    63    1
