@<TRIPOS>MOLECULE
ZINC00897306
 21 22 0 0 0
SMALL
GASTEIGER

@<TRIPOS>ATOM
      1 C           4.6234    0.6152    3.4707 C.ar    1  UNL1       -0.0617
      2 C           5.1208    1.0979    2.2746 C.ar    1  UNL1       -0.0614
      3 C           4.3217    1.1057    1.1467 C.ar    1  UNL1       -0.0546
      4 C           3.0255    0.6300    1.2146 C.ar    1  UNL1        0.0018
      5 C           2.5266    0.1518    2.4118 C.ar    1  UNL1       -0.0546
      6 C           3.3271    0.1399    3.5387 C.ar    1  UNL1       -0.0614
      7 C           2.1543    0.6385   -0.0151 C.3     1  UNL1        0.2051
      8 H           2.7653    0.6436   -0.9178 H       1  UNL1        0.0885
      9 C           1.2123    1.8268    0.0003 C.2     1  UNL1        0.2856
     10 O           1.5140    3.0039    0.0034 O.2     1  UNL1       -0.2691
     11 N          -0.0157    1.3092    0.0092 N.am    1  UNL1       -0.1284
     12 C           0.0021   -0.0041    0.0020 C.2     1  UNL1        0.2724
     13 O           1.2477   -0.5071   -0.0126 O.2     1  UNL1       -0.4497
     14 N          -1.1200   -0.7722    0.0082 N.pl3   1  UNL1       -0.3151
     15 H           5.2478    0.6090    4.3519 H       1  UNL1        0.0618
     16 H           6.1335    1.4692    2.2214 H       1  UNL1        0.0618
     17 H           4.7101    1.4831    0.2123 H       1  UNL1        0.0622
     18 H           1.5125   -0.2158    2.4659 H       1  UNL1        0.0622
     19 H           2.9387   -0.2375    4.4731 H       1  UNL1        0.0618
     20 H          -1.9947   -0.3530    0.0188 H       1  UNL1        0.1464
     21 H          -1.0457   -1.7394    0.0019 H       1  UNL1        0.1464
@<TRIPOS>BOND
     1     1     6   ar
     2     1     2   ar
     3     1    15    1
     4     2     3   ar
     5     2    16    1
     6     3     4   ar
     7     3    17    1
     8     4     5   ar
     9     4     7    1
    10     5     6   ar
    11     5    18    1
    12     6    19    1
    13     7     8    1
    14     7    13    1
    15     7     9    1
    16     9    10    2
    17     9    11    1
    18    11    12    2
    19    12    13    1
    20    12    14    1
    21    14    20    1
    22    14    21    1
