@<TRIPOS>MOLECULE
ZINC01482039
 45 47 0 0 0
SMALL
GASTEIGER

@<TRIPOS>ATOM
      1 C          -6.5258    2.0810   -3.1961 C.3     1  UNL1       -0.0415
      2 N          -5.4082    2.9024   -2.7122 N.4     1  UNL1        0.2395
      3 C          -5.7761    3.5185   -1.4319 C.3     1  UNL1       -0.0268
      4 C          -4.6858    4.5097   -1.0096 C.3     1  UNL1        0.0098
      5 C          -3.3599    3.7774   -0.9975 C.2     1  UNL1       -0.0513
      6 C          -2.5267    3.8702    0.0456 C.2     1  UNL1       -0.0111
      7 C          -1.2350    3.1420    0.0298 C.ar    1  UNL1       -0.0174
      8 C          -1.2177    1.7482    0.0173 C.ar    1  UNL1       -0.0540
      9 C          -0.0126    1.0758    0.0080 C.ar    1  UNL1       -0.0612
     10 C           1.1767    1.7824    0.0004 C.ar    1  UNL1       -0.0617
     11 C           1.1656    3.1657    0.0075 C.ar    1  UNL1       -0.0612
     12 C          -0.0335    3.8487    0.0221 C.ar    1  UNL1       -0.0540
     13 C          -2.8952    4.7012    1.2173 C.ar    1  UNL1       -0.0174
     14 C          -3.0208    6.0829    1.0832 C.ar    1  UNL1       -0.0540
     15 C          -3.3691    6.8506    2.1758 C.ar    1  UNL1       -0.0612
     16 C          -3.5826    6.2527    3.4048 C.ar    1  UNL1       -0.0617
     17 C          -3.4542    4.8825    3.5450 C.ar    1  UNL1       -0.0612
     18 C          -3.1116    4.1042    2.4581 C.ar    1  UNL1       -0.0540
     19 C          -3.0077    2.9414   -2.2105 C.3     1  UNL1        0.0098
     20 C          -4.2201    2.0571   -2.5448 C.3     1  UNL1       -0.0268
     21 C          -5.1179    3.9561   -3.6938 C.3     1  UNL1       -0.0415
     22 H          -7.4057    2.7094   -3.3336 H       1  UNL1        0.0778
     23 H          -6.2546    1.6224   -4.1471 H       1  UNL1        0.0778
     24 H          -6.7464    1.3016   -2.4667 H       1  UNL1        0.0778
     25 H          -5.8772    2.7439   -0.6717 H       1  UNL1        0.0818
     26 H          -6.7238    4.0458   -1.5415 H       1  UNL1        0.0818
     27 H          -4.9033    4.8930   -0.0126 H       1  UNL1        0.0362
     28 H          -4.6434    5.3355   -1.7198 H       1  UNL1        0.0362
     29 H          -2.1456    1.1956    0.0187 H       1  UNL1        0.0624
     30 H           0.0021   -0.0041    0.0020 H       1  UNL1        0.0618
     31 H           2.1174    1.2521   -0.0107 H       1  UNL1        0.0618
     32 H           2.0971    3.7122    0.0012 H       1  UNL1        0.0618
     33 H          -0.0410    4.9286    0.0280 H       1  UNL1        0.0624
     34 H          -2.8495    6.5514    0.1253 H       1  UNL1        0.0624
     35 H          -3.4704    7.9209    2.0723 H       1  UNL1        0.0618
     36 H          -3.8510    6.8579    4.2581 H       1  UNL1        0.0618
     37 H          -3.6222    4.4210    4.5069 H       1  UNL1        0.0618
     38 H          -3.0109    3.0346    2.5688 H       1  UNL1        0.0624
     39 H          -2.7808    3.5939   -3.0536 H       1  UNL1        0.0362
     40 H          -2.1445    2.3145   -1.9870 H       1  UNL1        0.0362
     41 H          -4.3903    1.3474   -1.7352 H       1  UNL1        0.0818
     42 H          -4.0277    1.5135   -3.4699 H       1  UNL1        0.0818
     43 H          -4.2922    4.5701   -3.3342 H       1  UNL1        0.0778
     44 H          -4.8444    3.5007   -4.6455 H       1  UNL1        0.0778
     45 H          -6.0017    4.5793   -3.8299 H       1  UNL1        0.0778
@<TRIPOS>UNITY_ATOM_ATTR
2 1
charge 1
@<TRIPOS>BOND
     1     1     2    1
     2     1    22    1
     3     1    23    1
     4     1    24    1
     5     2    20    1
     6     2     3    1
     7     2    21    1
     8     3     4    1
     9     3    25    1
    10     3    26    1
    11     4     5    1
    12     4    27    1
    13     4    28    1
    14     5     6    2
    15     5    19    1
    16     6     7    1
    17     6    13    1
    18     7    12   ar
    19     7     8   ar
    20     8     9   ar
    21     8    29    1
    22     9    10   ar
    23     9    30    1
    24    10    11   ar
    25    10    31    1
    26    11    12   ar
    27    11    32    1
    28    12    33    1
    29    13    18   ar
    30    13    14   ar
    31    14    15   ar
    32    14    34    1
    33    15    16   ar
    34    15    35    1
    35    16    17   ar
    36    16    36    1
    37    17    18   ar
    38    17    37    1
    39    18    38    1
    40    19    20    1
    41    19    39    1
    42    19    40    1
    43    20    41    1
    44    20    42    1
    45    21    43    1
    46    21    44    1
    47    21    45    1
