@<TRIPOS>MOLECULE
ZINC03628643
 41 45 0 0 0
SMALL
GASTEIGER

@<TRIPOS>ATOM
      1 C           3.7471    0.0043    4.8432 C.3     1  UNL1       -0.0428
      2 C           2.8703    1.8645    3.5877 C.3     1  UNL1       -0.0309
      3 C           1.8449    2.4020    2.5631 C.3     1  UNL1        0.0015
      4 C           2.0198    1.4890    1.3630 C.3     1  UNL1        0.0553
      5 C           3.4463    1.6100    0.9111 C.ar    1  UNL1        0.0120
      6 C           4.4779    0.7730    1.2384 C.ar    1  UNL1       -0.0345
      7 C           5.7065    1.1661    0.7424 C.ar    1  UNL1       -0.0544
      8 C           5.7942    2.2746   -0.0892 C.ar    1  UNL1       -0.0162
      9 C           4.6980    3.0314   -0.5097 C.ar    1  UNL1        0.1588
     10 C           3.4549    2.6629   -0.0116 C.ar    1  UNL1        0.1663
     11 O           2.1526    3.0576   -0.2566 O.3     1  UNL1       -0.4811
     12 C           1.4425    1.8576   -0.0017 C.3     1  UNL1        0.1402
     13 H           1.8979    1.1184   -0.6608 H       1  UNL1        0.0772
     14 C          -0.0188    1.5366    0.0105 C.3     1  UNL1        0.1110
     15 H          -0.4945    1.9158    0.9149 H       1  UNL1        0.0675
     16 C           0.0021   -0.0041    0.0020 C.2     1  UNL1       -0.0558
     17 C           0.8371   -0.6409    0.8245 C.2     1  UNL1       -0.0761
     18 C           1.6402    0.1025    1.8043 C.3     1  UNL1        0.0339
     19 H           0.8986    0.3437    2.5660 H       1  UNL1        0.0408
     20 C           2.7514   -0.4666    2.6603 C.3     1  UNL1       -0.0097
     21 H           2.4967   -1.4808    2.9676 H       1  UNL1        0.0860
     22 C           4.1581   -0.4263    2.0577 C.3     1  UNL1        0.0165
     23 O          -0.6649    2.0464   -1.1577 O.3     1  UNL1       -0.3841
     24 O           4.8409    4.0783   -1.3658 O.3     1  UNL1       -0.5033
     25 H           3.5496    0.4951    5.7962 H       1  UNL1        0.0778
     26 H           3.6839   -1.0763    4.9710 H       1  UNL1        0.0778
     27 H           4.7455    0.2715    4.4969 H       1  UNL1        0.0778
     28 H           3.8737    2.0660    3.2127 H       1  UNL1        0.0815
     29 H           2.7391    2.4041    4.5256 H       1  UNL1        0.0815
     30 H           2.0754    3.4334    2.2962 H       1  UNL1        0.0327
     31 H           0.8311    2.3272    2.9564 H       1  UNL1        0.0327
     32 H           6.5967    0.6119    1.0009 H       1  UNL1        0.0622
     33 H           6.7740    2.5709   -0.4338 H       1  UNL1        0.0655
     34 H          -0.6483   -0.5587   -0.6581 H       1  UNL1        0.0596
     35 H           0.9239   -1.7160    0.7692 H       1  UNL1        0.0575
     36 H           4.8796   -0.4844    2.8726 H       1  UNL1        0.0368
     37 H           4.2850   -1.3081    1.4296 H       1  UNL1        0.0368
     38 H          -1.5845    1.7631   -1.2539 H       1  UNL1        0.2104
     39 H           4.7689    3.8358   -2.2991 H       1  UNL1        0.2923
     40 N           2.7027    0.4236    3.9006 N.4     1  UNL1        0.2359
     41 H           1.7861    0.2998    4.3466 H       1  UNL1        0.2034
@<TRIPOS>UNITY_ATOM_ATTR
40 1
charge 1
@<TRIPOS>BOND
     1     1    25    1
     2     1    26    1
     3     1    27    1
     4     1    40    1
     5     2     3    1
     6     2    28    1
     7     2    29    1
     8     2    40    1
     9     3     4    1
    10     3    30    1
    11     3    31    1
    12     4    12    1
    13     4    18    1
    14     4     5    1
    15     5    10   ar
    16     5     6   ar
    17     6    22    1
    18     6     7   ar
    19     7     8   ar
    20     7    32    1
    21     8     9   ar
    22     8    33    1
    23     9    10   ar
    24     9    24    1
    25    10    11    1
    26    11    12    1
    27    12    13    1
    28    12    14    1
    29    14    15    1
    30    14    16    1
    31    14    23    1
    32    16    17    2
    33    16    34    1
    34    17    18    1
    35    17    35    1
    36    18    19    1
    37    18    20    1
    38    20    21    1
    39    20    22    1
    40    20    40    1
    41    22    36    1
    42    22    37    1
    43    23    38    1
    44    24    39    1
    45    40    41    1
