@<TRIPOS>MOLECULE
ZINC00113355
 26 26 0 0 0
SMALL
GASTEIGER

@<TRIPOS>ATOM
      1 C          -0.3362    7.8374    2.8483 C.3     1  UNL1       -0.0448
      2 C          -0.1966    5.8511    1.4708 C.3     1  UNL1       -0.0030
      3 C          -0.0759    5.3505    0.0300 C.3     1  UNL1        0.1198
      4 H           0.8452    5.7314   -0.4110 H       1  UNL1        0.0698
      5 C          -0.0511    3.8437    0.0222 C.ar    1  UNL1       -0.0106
      6 C          -1.2374    3.1332    0.0293 C.ar    1  UNL1       -0.0557
      7 C          -1.2180    1.7509    0.0173 C.ar    1  UNL1       -0.0580
      8 C          -0.0126    1.0758    0.0080 C.ar    1  UNL1       -0.0202
      9 C           1.1788    1.7862    0.0004 C.ar    1  UNL1        0.1172
     10 C           1.1566    3.1736    0.0076 C.ar    1  UNL1       -0.0144
     11 O           2.3657    1.1246   -0.0136 O.3     1  UNL1       -0.5068
     12 O          -1.1944    5.8124   -0.7300 O.3     1  UNL1       -0.3819
     13 H           0.5159    7.4989    3.4376 H       1  UNL1        0.0777
     14 H          -0.3519    8.9271    2.8250 H       1  UNL1        0.0777
     15 H          -1.2584    7.4703    3.2989 H       1  UNL1        0.0777
     16 H          -1.1178    5.4703    1.9118 H       1  UNL1        0.0843
     17 H           0.6565    5.4988    2.0505 H       1  UNL1        0.0843
     18 H          -2.1807    3.6590    0.0407 H       1  UNL1        0.0621
     19 H          -2.1459    1.1983    0.0191 H       1  UNL1        0.0619
     20 H           0.0021   -0.0041    0.0020 H       1  UNL1        0.0654
     21 H           2.0828    3.7290    0.0014 H       1  UNL1        0.0658
     22 H           2.7012    0.9372   -0.9010 H       1  UNL1        0.2921
     23 H          -2.0497    5.5112   -0.3940 H       1  UNL1        0.2105
     24 N          -0.2202    7.3260    1.4696 N.4     1  UNL1        0.2269
     25 H           0.6480    7.6783    1.0496 H       1  UNL1        0.2012
     26 H          -1.0234    7.6515    0.9190 H       1  UNL1        0.2012
@<TRIPOS>UNITY_ATOM_ATTR
24 1
charge 1
@<TRIPOS>BOND
     1     1    13    1
     2     1    14    1
     3     1    15    1
     4     1    24    1
     5     2     3    1
     6     2    16    1
     7     2    17    1
     8     2    24    1
     9     3     4    1
    10     3     5    1
    11     3    12    1
    12     5    10   ar
    13     5     6   ar
    14     6     7   ar
    15     6    18    1
    16     7     8   ar
    17     7    19    1
    18     8     9   ar
    19     8    20    1
    20     9    10   ar
    21     9    11    1
    22    10    21    1
    23    11    22    1
    24    12    23    1
    25    24    25    1
    26    24    26    1
