@<TRIPOS>MOLECULE
ZINC01481906
 51 53 0 0 0
SMALL
GASTEIGER

@<TRIPOS>ATOM
      1 C           0.0898   -4.1430    2.4940 C.3     1  UNL1       -0.0244
      2 C           0.0720   -2.8835    3.3625 C.3     1  UNL1       -0.0324
      3 N          -0.4363   -1.7526    2.5746 N.4     1  UNL1        0.2481
      4 C          -0.5627   -0.5443    3.4308 C.3     1  UNL1       -0.0255
      5 C          -0.5152    0.6126    2.4016 C.3     1  UNL1        0.0148
      6 C           0.4961    0.1225    1.3756 C.2     1  UNL1       -0.0091
      7 C           1.2058    0.8693    0.5215 C.2     1  UNL1       -0.0060
      8 C           1.1401    2.3488    0.5987 C.ar    1  UNL1       -0.0172
      9 C          -0.0545    3.0114    0.3216 C.ar    1  UNL1       -0.0540
     10 C          -0.1114    4.3880    0.4011 C.ar    1  UNL1       -0.0612
     11 C           1.0172    5.1109    0.7434 C.ar    1  UNL1       -0.0617
     12 C           2.2071    4.4590    1.0134 C.ar    1  UNL1       -0.0612
     13 C           2.2742    3.0824    0.9431 C.ar    1  UNL1       -0.0540
     14 C           2.0580    0.2174   -0.5021 C.ar    1  UNL1       -0.0172
     15 C           3.4461    0.3182   -0.4243 C.ar    1  UNL1       -0.0540
     16 C           4.2343   -0.2958   -1.3762 C.ar    1  UNL1       -0.0612
     17 C           3.6490   -1.0002   -2.4130 C.ar    1  UNL1       -0.0617
     18 C           2.2719   -1.0985   -2.4987 C.ar    1  UNL1       -0.0612
     19 C           1.4738   -0.4938   -1.5490 C.ar    1  UNL1       -0.0540
     20 C           0.5291   -1.3862    1.5159 C.3     1  UNL1        0.0009
     21 H           0.2430   -1.8522    0.5730 H       1  UNL1        0.0899
     22 C           1.9337   -1.8403    1.9180 C.3     1  UNL1       -0.0174
     23 C          -1.7351   -2.0910    1.9775 C.3     1  UNL1       -0.0324
     24 C          -2.7235   -2.4643    3.0841 C.3     1  UNL1       -0.0244
     25 H          -0.9333   -4.4397    2.2632 H       1  UNL1        0.0281
     26 H           0.6264   -3.9380    1.5676 H       1  UNL1        0.0281
     27 H           0.5890   -4.9486    3.0324 H       1  UNL1        0.0281
     28 H           1.0834   -2.6631    3.7037 H       1  UNL1        0.0812
     29 H          -0.5751   -3.0457    4.2245 H       1  UNL1        0.0812
     30 H           0.2728   -0.4758    4.1275 H       1  UNL1        0.0818
     31 H          -1.5116   -0.5453    3.9671 H       1  UNL1        0.0818
     32 H          -0.1703    1.5330    2.8728 H       1  UNL1        0.0364
     33 H          -1.4913    0.7606    1.9397 H       1  UNL1        0.0364
     34 H          -0.9352    2.4483    0.0499 H       1  UNL1        0.0624
     35 H          -1.0376    4.9022    0.1910 H       1  UNL1        0.0618
     36 H           0.9693    6.1883    0.7996 H       1  UNL1        0.0618
     37 H           3.0851    5.0285    1.2801 H       1  UNL1        0.0618
     38 H           3.2036    2.5746    1.1541 H       1  UNL1        0.0624
     39 H           3.9040    0.8717    0.3822 H       1  UNL1        0.0624
     40 H           5.3100   -0.2221   -1.3144 H       1  UNL1        0.0618
     41 H           4.2697   -1.4751   -3.1584 H       1  UNL1        0.0618
     42 H           1.8204   -1.6497   -3.3103 H       1  UNL1        0.0618
     43 H           0.3988   -0.5711   -1.6170 H       1  UNL1        0.0624
     44 H           2.1698   -1.4557    2.9102 H       1  UNL1        0.0288
     45 H           1.9734   -2.9295    1.9316 H       1  UNL1        0.0288
     46 H           2.6586   -1.4593    1.1987 H       1  UNL1        0.0288
     47 H          -2.1158   -1.2320    1.4249 H       1  UNL1        0.0812
     48 H          -1.6140   -2.9351    1.2986 H       1  UNL1        0.0812
     49 H          -2.3021   -3.2641    3.6930 H       1  UNL1        0.0281
     50 H          -2.9139   -1.5927    3.7104 H       1  UNL1        0.0281
     51 H          -3.6586   -2.8020    2.6373 H       1  UNL1        0.0281
@<TRIPOS>UNITY_ATOM_ATTR
3 1
charge 1
@<TRIPOS>BOND
     1     1     2    1
     2     1    25    1
     3     1    26    1
     4     1    27    1
     5     2     3    1
     6     2    28    1
     7     2    29    1
     8     3    20    1
     9     3     4    1
    10     3    23    1
    11     4     5    1
    12     4    30    1
    13     4    31    1
    14     5     6    1
    15     5    32    1
    16     5    33    1
    17     6     7    2
    18     6    20    1
    19     7     8    1
    20     7    14    1
    21     8    13   ar
    22     8     9   ar
    23     9    10   ar
    24     9    34    1
    25    10    11   ar
    26    10    35    1
    27    11    12   ar
    28    11    36    1
    29    12    13   ar
    30    12    37    1
    31    13    38    1
    32    14    19   ar
    33    14    15   ar
    34    15    16   ar
    35    15    39    1
    36    16    17   ar
    37    16    40    1
    38    17    18   ar
    39    17    41    1
    40    18    19   ar
    41    18    42    1
    42    19    43    1
    43    20    21    1
    44    20    22    1
    45    22    44    1
    46    22    45    1
    47    22    46    1
    48    23    24    1
    49    23    47    1
    50    23    48    1
    51    24    49    1
    52    24    50    1
    53    24    51    1
