@<TRIPOS>MOLECULE
ZINC00119492
 31 32 0 0 0
SMALL
GASTEIGER

@<TRIPOS>ATOM
      1 C           0.0021   -0.0041    0.0020 C.3     1  UNL1       -0.0645
      2 C          -0.0187    1.5258    0.0104 C.3     1  UNL1       -0.0426
      3 C           1.4167    2.0553   -0.0004 C.3     1  UNL1        0.0624
      4 H           1.9789    1.6427    0.8373 H       1  UNL1        0.0417
      5 C           1.4207    3.5993    0.0547 C.3     1  UNL1        0.0116
      6 H           1.7506    3.9521    1.0319 H       1  UNL1        0.0345
      7 C           2.4519    3.9611   -1.0384 C.3     1  UNL1        0.0964
      8 O           2.4057    2.8384   -1.9680 O.3     1  UNL1       -0.4641
      9 C           2.0946    1.7129   -1.3094 C.2     1  UNL1        0.3106
     10 O           2.3214    0.5930   -1.7020 O.2     1  UNL1       -0.2505
     11 C           0.0400    4.1605   -0.2914 C.3     1  UNL1       -0.0041
     12 C           0.0458    5.6565   -0.1092 C.ar    1  UNL1        0.0381
     13 C           0.4519    6.5731   -1.0084 C.ar    1  UNL1        0.0486
     14 N           0.2950    7.7880   -0.4622 N.ar    1  UNL1       -0.2438
     15 C          -0.1850    7.6587    0.7444 C.ar    1  UNL1        0.0959
     16 N          -0.3551    6.3445    1.0042 N.ar    1  UNL1       -0.3370
     17 C          -0.8722    5.7635    2.2457 C.3     1  UNL1        0.0130
     18 H          -1.0205   -0.3814    0.0098 H       1  UNL1        0.0230
     19 H           0.5123   -0.3556   -0.8948 H       1  UNL1        0.0230
     20 H           0.5293   -0.3651    0.8851 H       1  UNL1        0.0230
     21 H          -0.5459    1.8868   -0.8726 H       1  UNL1        0.0271
     22 H          -0.5289    1.8773    0.9072 H       1  UNL1        0.0271
     23 H           3.4478    4.0562   -0.6056 H       1  UNL1        0.0700
     24 H           2.1649    4.8843   -1.5418 H       1  UNL1        0.0700
     25 H          -0.2000    3.9216   -1.3274 H       1  UNL1        0.0332
     26 H          -0.7077    3.7173    0.3664 H       1  UNL1        0.0332
     27 H           0.8344    6.3663   -1.9970 H       1  UNL1        0.0848
     28 H          -0.4093    8.4686    1.4228 H       1  UNL1        0.1029
     29 H          -0.0448    5.5698    2.9283 H       1  UNL1        0.0456
     30 H          -1.5705    6.4602    2.7095 H       1  UNL1        0.0456
     31 H          -1.3859    4.8284    2.0229 H       1  UNL1        0.0456
@<TRIPOS>BOND
     1     1     2    1
     2     1    18    1
     3     1    19    1
     4     1    20    1
     5     2     3    1
     6     2    21    1
     7     2    22    1
     8     3     4    1
     9     3     9    1
    10     3     5    1
    11     5     6    1
    12     5     7    1
    13     5    11    1
    14     7     8    1
    15     7    23    1
    16     7    24    1
    17     8     9    1
    18     9    10    2
    19    11    12    1
    20    11    25    1
    21    11    26    1
    22    12    16   ar
    23    12    13   ar
    24    13    14   ar
    25    13    27    1
    26    14    15   ar
    27    15    16   ar
    28    15    28    1
    29    16    17    1
    30    17    29    1
    31    17    30    1
    32    17    31    1
