@<TRIPOS>MOLECULE
ZINC00000612
 37 39 0 0 0
SMALL
GASTEIGER

@<TRIPOS>ATOM
      1 C          -1.4197    7.5340    2.5316 C.3     1  UNL1       -0.0644
      2 C          -2.2194    7.7915    1.2529 C.3     1  UNL1       -0.0447
      3 C          -1.2916    7.6849    0.0410 C.3     1  UNL1        0.0193
      4 H          -0.6649    8.5749   -0.0162 H       1  UNL1        0.0400
      5 C          -2.1168    7.5701   -1.2148 C.ar    1  UNL1       -0.0396
      6 C          -3.1067    6.6096   -1.3059 C.ar    1  UNL1       -0.0580
      7 C          -3.8665    6.5072   -2.4562 C.ar    1  UNL1       -0.0615
      8 C          -3.6300    7.3590   -3.5189 C.ar    1  UNL1       -0.0617
      9 C          -2.6369    8.3164   -3.4296 C.ar    1  UNL1       -0.0615
     10 C          -1.8800    8.4216   -2.2777 C.ar    1  UNL1       -0.0580
     11 C          -0.4191    6.4643    0.1821 C.ar    1  UNL1        0.0862
     12 C           0.8645    6.4795   -0.2895 C.ar    1  UNL1        0.1381
     13 C           1.6748    5.2623   -0.1266 C.ar    1  UNL1        0.0593
     14 C           2.9931    5.2081   -0.5842 C.ar    1  UNL1       -0.0475
     15 C           3.7249    4.0537   -0.4158 C.ar    1  UNL1       -0.0609
     16 C           3.1582    2.9495    0.2040 C.ar    1  UNL1       -0.0582
     17 C           1.8559    2.9882    0.6557 C.ar    1  UNL1       -0.0185
     18 C           1.1022    4.1446    0.5010 C.ar    1  UNL1        0.1426
     19 O          -0.1728    4.2016    0.9429 O.2     1  UNL1       -0.4217
     20 C          -0.9202    5.3075    0.7983 C.ar    1  UNL1        0.3446
     21 O          -2.0656    5.3068    1.2144 O.2     1  UNL1       -0.2447
     22 O           1.3740    7.5805   -0.8874 O.3     1  UNL1       -0.5055
     23 H          -1.9892    7.8832    3.3929 H       1  UNL1        0.0230
     24 H          -1.2284    6.4655    2.6315 H       1  UNL1        0.0230
     25 H          -0.4718    8.0697    2.4814 H       1  UNL1        0.0230
     26 H          -2.6539    8.7904    1.2911 H       1  UNL1        0.0272
     27 H          -3.0156    7.0520    1.1672 H       1  UNL1        0.0272
     28 H          -3.2887    5.9414   -0.4772 H       1  UNL1        0.0620
     29 H          -4.6427    5.7594   -2.5259 H       1  UNL1        0.0618
     30 H          -4.2214    7.2768   -4.4189 H       1  UNL1        0.0618
     31 H          -2.4521    8.9819   -4.2598 H       1  UNL1        0.0618
     32 H          -1.1038    9.1694   -2.2080 H       1  UNL1        0.0620
     33 H           3.4362    6.0665   -1.0670 H       1  UNL1        0.0626
     34 H           4.7447    4.0076   -0.7683 H       1  UNL1        0.0618
     35 H           3.7413    2.0492    0.3300 H       1  UNL1        0.0619
     36 H           1.4235    2.1212    1.1331 H       1  UNL1        0.0654
     37 H           1.2382    7.6068   -1.8444 H       1  UNL1        0.2922
@<TRIPOS>BOND
     1     1     2    1
     2     1    23    1
     3     1    24    1
     4     1    25    1
     5     2     3    1
     6     2    26    1
     7     2    27    1
     8     3     4    1
     9     3     5    1
    10     3    11    1
    11     5    10   ar
    12     5     6   ar
    13     6     7   ar
    14     6    28    1
    15     7     8   ar
    16     7    29    1
    17     8     9   ar
    18     8    30    1
    19     9    10   ar
    20     9    31    1
    21    10    32    1
    22    11    20   ar
    23    11    12   ar
    24    12    13   ar
    25    12    22    1
    26    13    18   ar
    27    13    14   ar
    28    14    15   ar
    29    14    33    1
    30    15    16   ar
    31    15    34    1
    32    16    17   ar
    33    16    35    1
    34    17    18   ar
    35    17    36    1
    36    18    19   ar
    37    19    20   ar
    38    20    21    2
    39    22    37    1
