@<TRIPOS>MOLECULE
ZINC11615998
 69 72 0 0 0
SMALL
GASTEIGER

@<TRIPOS>ATOM
      1 C          -0.0127    1.0858    0.0080 C.3     1  UNL1       -0.0415
      2 C          -0.7288    1.5792    1.2668 C.3     1  UNL1        0.0479
      3 O          -0.0377    1.1059    2.4245 O.3     1  UNL1       -0.3490
      4 C          -0.6279    1.5128    3.6607 C.3     1  UNL1        0.1879
      5 H          -0.8178    2.5860    3.6451 H       1  UNL1        0.0937
      6 C           0.3128    1.1640    4.8304 C.3     1  UNL1        0.1344
      7 H           1.2293    0.7055    4.4591 H       1  UNL1        0.0671
      8 C          -0.4950    0.1512    5.6779 C.3     1  UNL1        0.1183
      9 H          -0.9874    0.6486    6.5135 H       1  UNL1        0.0651
     10 C          -1.5352   -0.3718    4.6548 C.3     1  UNL1        0.1186
     11 H          -1.0976   -1.1455    4.0240 H       1  UNL1        0.0651
     12 O          -1.8592    0.8016    3.8719 O.3     1  UNL1       -0.3401
     13 C          -2.7773   -0.9030    5.3729 C.3     1  UNL1        0.1110
     14 H          -3.2294   -0.1019    5.9577 H       1  UNL1        0.0646
     15 C          -3.7851   -1.4116    4.3402 C.3     1  UNL1        0.0768
     16 O          -4.9906   -1.7998    5.0020 O.3     1  UNL1       -0.3725
     17 C          -6.0036   -2.2926    4.1228 C.3     1  UNL1        0.0728
     18 C          -7.2234   -2.6701    4.9233 C.ar    1  UNL1       -0.0219
     19 C          -7.3571   -3.9552    5.4146 C.ar    1  UNL1       -0.0564
     20 C          -8.4737   -4.3002    6.1529 C.ar    1  UNL1       -0.0614
     21 C          -9.4612   -3.3627    6.3915 C.ar    1  UNL1       -0.0617
     22 C          -9.3301   -2.0792    5.8953 C.ar    1  UNL1       -0.0614
     23 C          -8.2111   -1.7328    5.1614 C.ar    1  UNL1       -0.0564
     24 O          -2.4036   -1.9743    6.2416 O.3     1  UNL1       -0.3671
     25 C          -3.2322   -2.1001    7.3991 C.3     1  UNL1        0.0733
     26 C          -2.7499   -3.2547    8.2390 C.ar    1  UNL1       -0.0219
     27 C          -3.2585   -4.5227    8.0282 C.ar    1  UNL1       -0.0564
     28 C          -2.8123   -5.5827    8.7951 C.ar    1  UNL1       -0.0614
     29 C          -1.8658   -5.3727    9.7804 C.ar    1  UNL1       -0.0617
     30 C          -1.3610   -4.1037    9.9947 C.ar    1  UNL1       -0.0614
     31 C          -1.8031   -3.0448    9.2240 C.ar    1  UNL1       -0.0564
     32 O           0.3434   -0.9092    6.1412 O.3     1  UNL1       -0.3666
     33 C           0.9298   -0.6693    7.4221 C.3     1  UNL1        0.0733
     34 C           1.7888   -1.8454    7.8095 C.ar    1  UNL1       -0.0219
     35 C           1.2411   -2.8969    8.5202 C.ar    1  UNL1       -0.0564
     36 C           2.0280   -3.9777    8.8718 C.ar    1  UNL1       -0.0614
     37 C           3.3648   -4.0027    8.5206 C.ar    1  UNL1       -0.0617
     38 C           3.9137   -2.9487    7.8144 C.ar    1  UNL1       -0.0614
     39 C           3.1258   -1.8699    7.4591 C.ar    1  UNL1       -0.0564
     40 O           0.6140    2.3327    5.5955 O.3     1  UNL1       -0.3841
     41 H           0.0021   -0.0041    0.0020 H       1  UNL1        0.0252
     42 H           1.0099    1.4631    0.0003 H       1  UNL1        0.0252
     43 H          -0.5399    1.4469   -0.8751 H       1  UNL1        0.0252
     44 H          -0.7436    2.6691    1.2728 H       1  UNL1        0.0558
     45 H          -1.7514    1.2020    1.2746 H       1  UNL1        0.0558
     46 H          -4.0027   -0.6193    3.6240 H       1  UNL1        0.0587
     47 H          -3.3658   -2.2703    3.8157 H       1  UNL1        0.0587
     48 H          -6.2672   -1.5185    3.4021 H       1  UNL1        0.0610
     49 H          -5.6304   -3.1696    3.5939 H       1  UNL1        0.0610
     50 H          -6.5875   -4.6888    5.2247 H       1  UNL1        0.0621
     51 H          -8.5763   -5.3031    6.5402 H       1  UNL1        0.0618
     52 H         -10.3354   -3.6333    6.9652 H       1  UNL1        0.0618
     53 H         -10.1018   -1.3469    6.0814 H       1  UNL1        0.0618
     54 H          -8.1087   -0.7300    4.7738 H       1  UNL1        0.0621
     55 H          -3.1831   -1.1808    7.9826 H       1  UNL1        0.0610
     56 H          -4.2620   -2.2803    7.0908 H       1  UNL1        0.0610
     57 H          -4.0016   -4.6859    7.2616 H       1  UNL1        0.0621
     58 H          -3.2064   -6.5741    8.6274 H       1  UNL1        0.0618
     59 H          -1.5204   -6.2000   10.3826 H       1  UNL1        0.0618
     60 H          -0.6215   -3.9397   10.7646 H       1  UNL1        0.0618
     61 H          -1.4090   -2.0533    9.3917 H       1  UNL1        0.0621
     62 H           1.5438    0.2302    7.3778 H       1  UNL1        0.0610
     63 H           0.1417   -0.5352    8.1631 H       1  UNL1        0.0610
     64 H           0.1976   -2.8757    8.7979 H       1  UNL1        0.0621
     65 H           1.5991   -4.8013    9.4233 H       1  UNL1        0.0618
     66 H           3.9802   -4.8458    8.7976 H       1  UNL1        0.0618
     67 H           4.9581   -2.9682    7.5401 H       1  UNL1        0.0618
     68 H           3.5546   -1.0465    6.9074 H       1  UNL1        0.0621
     69 H           1.0696    3.0236    5.0954 H       1  UNL1        0.2101
@<TRIPOS>BOND
     1     1     2    1
     2     1    41    1
     3     1    42    1
     4     1    43    1
     5     2     3    1
     6     2    44    1
     7     2    45    1
     8     3     4    1
     9     4     5    1
    10     4    12    1
    11     4     6    1
    12     6     7    1
    13     6     8    1
    14     6    40    1
    15     8     9    1
    16     8    10    1
    17     8    32    1
    18    10    11    1
    19    10    12    1
    20    10    13    1
    21    13    14    1
    22    13    15    1
    23    13    24    1
    24    15    16    1
    25    15    46    1
    26    15    47    1
    27    16    17    1
    28    17    18    1
    29    17    48    1
    30    17    49    1
    31    18    23   ar
    32    18    19   ar
    33    19    20   ar
    34    19    50    1
    35    20    21   ar
    36    20    51    1
    37    21    22   ar
    38    21    52    1
    39    22    23   ar
    40    22    53    1
    41    23    54    1
    42    24    25    1
    43    25    26    1
    44    25    55    1
    45    25    56    1
    46    26    31   ar
    47    26    27   ar
    48    27    28   ar
    49    27    57    1
    50    28    29   ar
    51    28    58    1
    52    29    30   ar
    53    29    59    1
    54    30    31   ar
    55    30    60    1
    56    31    61    1
    57    32    33    1
    58    33    34    1
    59    33    62    1
    60    33    63    1
    61    34    39   ar
    62    34    35   ar
    63    35    36   ar
    64    35    64    1
    65    36    37   ar
    66    36    65    1
    67    37    38   ar
    68    37    66    1
    69    38    39   ar
    70    38    67    1
    71    39    68    1
    72    40    69    1
