@<TRIPOS>MOLECULE
ZINC08101059
 87 89 0 0 0
SMALL
GASTEIGER

@<TRIPOS>ATOM
      1 C           0.4987    1.8856   -7.2366 C.3     1  UNL1        0.0137
      2 C          -0.1139    2.3605   -5.9175 C.3     1  UNL1        0.0069
      3 H          -1.1569    2.6330   -6.0786 H       1  UNL1        0.0877
      4 C          -0.0346    1.2351   -4.8840 C.3     1  UNL1        0.1322
      5 H           1.0084    0.9625   -4.7229 H       1  UNL1        0.0681
      6 C          -0.8067    0.0174   -5.3957 C.3     1  UNL1        0.1145
      7 H          -1.8497    0.2899   -5.5568 H       1  UNL1        0.0648
      8 C          -0.1941   -0.4575   -6.7149 C.3     1  UNL1        0.1086
      9 H          -0.7442   -1.3250   -7.0794 H       1  UNL1        0.0642
     10 C          -0.2734    0.6679   -7.7483 C.3     1  UNL1        0.0571
     11 H          -1.3164    0.9404   -7.9094 H       1  UNL1        0.0527
     12 N           0.3131    0.2132   -9.0114 N.am    1  UNL1       -0.3076
     13 C          -0.0664    0.7805  -10.1736 C.2     1  UNL1        0.2421
     14 O          -0.8936    1.6675  -10.1736 O.2     1  UNL1       -0.2730
     15 C           0.5370    0.3127  -11.4729 C.3     1  UNL1        0.1357
     16 H           1.6233    0.3794  -11.4138 H       1  UNL1        0.0692
     17 C           0.1284   -1.1388  -11.7315 C.3     1  UNL1        0.0219
     18 C           0.8403   -1.6535  -12.9842 C.3     1  UNL1       -0.0325
     19 O           0.0665    1.1375  -12.5408 O.3     1  UNL1       -0.3824
     20 O           1.1732   -0.8148   -6.5037 O.3     1  UNL1       -0.3408
     21 C           1.3674   -2.1845   -6.1452 C.3     1  UNL1        0.1913
     22 H           0.6966   -2.4445   -5.3263 H       1  UNL1        0.0939
     23 C           2.8179   -2.3960   -5.7036 C.3     1  UNL1        0.1506
     24 H           3.0200   -1.7953   -4.8168 H       1  UNL1        0.0702
     25 C           3.0337   -3.8772   -5.3788 C.3     1  UNL1        0.0360
     26 H           2.3968   -4.1635   -4.5418 H       1  UNL1        0.0904
     27 C           2.6721   -4.7162   -6.6083 C.3     1  UNL1        0.1283
     28 H           2.7710   -5.7750   -6.3687 H       1  UNL1        0.0678
     29 C           1.2272   -4.4151   -7.0149 C.3     1  UNL1        0.1159
     30 H           0.5546   -4.7045   -6.2074 H       1  UNL1        0.0648
     31 O           1.0880   -3.0165   -7.2729 O.3     1  UNL1       -0.3403
     32 C           0.8776   -5.2043   -8.2781 C.3     1  UNL1        0.0731
     33 O          -0.5037   -5.0146   -8.5913 O.3     1  UNL1       -0.3924
     34 O           3.5502   -4.3866   -7.6864 O.3     1  UNL1       -0.3834
     35 O           3.6998   -2.0049   -6.7578 O.3     1  UNL1       -0.3812
     36 O          -0.7327   -1.0337   -4.4305 O.3     1  UNL1       -0.3864
     37 O          -0.6067    1.6786   -3.6519 O.3     1  UNL1       -0.3372
     38 C           0.1060    1.2464   -2.4912 C.3     1  UNL1        0.1887
     39 H           0.2997    0.1761   -2.5610 H       1  UNL1        0.0938
     40 C          -0.7310    1.5333   -1.2419 C.3     1  UNL1        0.1341
     41 H          -1.6586    0.9625   -1.2859 H       1  UNL1        0.0671
     42 C           0.0642    1.1229    0.0013 C.3     1  UNL1        0.1142
     43 H           0.2500    0.0491   -0.0228 H       1  UNL1        0.0648
     44 C           1.3992    1.8738    0.0109 C.3     1  UNL1        0.1147
     45 H           1.9947    1.5473    0.8635 H       1  UNL1        0.0648
     46 C           2.1539    1.5737   -1.2868 C.3     1  UNL1        0.1294
     47 H           2.3747    0.5077   -1.3408 H       1  UNL1        0.0678
     48 O           1.3464    1.9506   -2.4040 O.3     1  UNL1       -0.3375
     49 C           3.4617    2.3675   -1.3117 C.3     1  UNL1       -0.0058
     50 O           1.1562    3.2786    0.1081 O.3     1  UNL1       -0.3864
     51 O          -0.6785    1.4532    1.1766 O.3     1  UNL1       -0.3864
     52 O          -1.0304    2.9292   -1.1779 O.3     1  UNL1       -0.3841
     53 H           1.5417    1.6130   -7.0755 H       1  UNL1        0.0340
     54 H           0.4423    2.6873   -7.9729 H       1  UNL1        0.0340
     55 H           0.9747   -0.4962   -9.0114 H       1  UNL1        0.1491
     56 H           0.4090   -1.7532  -10.8760 H       1  UNL1        0.0347
     57 H          -0.9503   -1.1920  -11.8789 H       1  UNL1        0.0347
     58 H           0.5597   -1.0391  -13.8398 H       1  UNL1        0.0814
     59 H           1.9189   -1.6004  -12.8369 H       1  UNL1        0.0814
     60 H          -0.5545   -3.1327  -13.3085 H       1  UNL1        0.1994
     61 H           0.9052   -3.4104  -14.0555 H       1  UNL1        0.1994
     62 H          -0.8941    1.1269  -12.6520 H       1  UNL1        0.2104
     63 H           1.4900   -4.8517   -9.1080 H       1  UNL1        0.0584
     64 H           1.0697   -6.2639   -8.1094 H       1  UNL1        0.0584
     65 H          -0.7961   -5.4872   -9.3826 H       1  UNL1        0.2095
     66 H           3.3781   -4.8815   -8.4992 H       1  UNL1        0.2102
     67 H           4.7060   -3.5542   -4.2222 H       1  UNL1        0.1999
     68 H           4.6230   -5.0833   -4.8709 H       1  UNL1        0.1999
     69 H           3.6138   -1.0778   -7.0190 H       1  UNL1        0.2103
     70 H          -1.1744   -0.8317   -3.5943 H       1  UNL1        0.2100
     71 H           3.2408    3.4335   -1.2582 H       1  UNL1        0.0840
     72 H           4.0771    2.0807   -0.4590 H       1  UNL1        0.0840
     73 H           5.0538    2.5921   -2.5975 H       1  UNL1        0.1995
     74 H           4.3458    1.0886   -2.6613 H       1  UNL1        0.1995
     75 H           0.6763    3.5405    0.9057 H       1  UNL1        0.2100
     76 H          -1.5381    1.0141    1.2349 H       1  UNL1        0.2100
     77 H          -1.5338    3.2586   -1.9350 H       1  UNL1        0.2101
     78 H           0.5902    4.2873   -6.0915 H       1  UNL1        0.1998
     79 H           0.2834    3.8232   -4.5242 H       1  UNL1        0.1998
     80 N           0.4568   -3.0580  -13.2114 N.4     1  UNL1        0.2186
     81 H           0.7591   -3.6243  -12.4101 H       1  UNL1        0.1994
     82 N           4.4531   -4.0946   -5.0478 N.4     1  UNL1        0.2246
     83 H           5.0342   -3.7910   -5.8380 H       1  UNL1        0.1999
     84 N           4.1689    2.0880   -2.5739 N.4     1  UNL1        0.2204
     85 H           3.5871    2.3954   -3.3620 H       1  UNL1        0.1995
     86 N           0.6508    3.5197   -5.4245 N.4     1  UNL1        0.2227
     87 H           1.6353    3.2511   -5.3113 H       1  UNL1        0.1998
@<TRIPOS>UNITY_ATOM_ATTR
80 1
charge 1
82 1
charge 1
84 1
charge 1
86 1
charge 1
@<TRIPOS>BOND
     1     1    10    1
     2     1     2    1
     3     1    53    1
     4     1    54    1
     5     2     3    1
     6     2     4    1
     7     2    86    1
     8     4     5    1
     9     4     6    1
    10     4    37    1
    11     6     7    1
    12     6     8    1
    13     6    36    1
    14     8     9    1
    15     8    10    1
    16     8    20    1
    17    10    11    1
    18    10    12    1
    19    12    13   am
    20    12    55    1
    21    13    14    2
    22    13    15    1
    23    15    16    1
    24    15    17    1
    25    15    19    1
    26    17    18    1
    27    17    56    1
    28    17    57    1
    29    18    58    1
    30    18    59    1
    31    18    80    1
    32    19    62    1
    33    20    21    1
    34    21    22    1
    35    21    31    1
    36    21    23    1
    37    23    24    1
    38    23    25    1
    39    23    35    1
    40    25    26    1
    41    25    27    1
    42    25    82    1
    43    27    28    1
    44    27    29    1
    45    27    34    1
    46    29    30    1
    47    29    31    1
    48    29    32    1
    49    32    33    1
    50    32    63    1
    51    32    64    1
    52    33    65    1
    53    34    66    1
    54    35    69    1
    55    36    70    1
    56    37    38    1
    57    38    39    1
    58    38    48    1
    59    38    40    1
    60    40    41    1
    61    40    42    1
    62    40    52    1
    63    42    43    1
    64    42    44    1
    65    42    51    1
    66    44    45    1
    67    44    46    1
    68    44    50    1
    69    46    47    1
    70    46    48    1
    71    46    49    1
    72    49    71    1
    73    49    72    1
    74    49    84    1
    75    50    75    1
    76    51    76    1
    77    52    77    1
    78    60    80    1
    79    61    80    1
    80    67    82    1
    81    68    82    1
    82    73    84    1
    83    74    84    1
    84    78    86    1
    85    79    86    1
    86    80    81    1
    87    82    83    1
    88    84    85    1
    89    86    87    1
