@<TRIPOS>MOLECULE
ZINC08101186
 73 75 0 0 0
SMALL
GASTEIGER

@<TRIPOS>ATOM
      1 C           0.0688   -0.4417   -2.2142 C.3     1  UNL1       -0.0285
      2 C           1.0473   -0.8616   -1.1154 C.3     1  UNL1        0.1311
      3 C           0.5626   -0.3247    0.2338 C.3     1  UNL1        0.0846
      4 O           0.5432    1.1038    0.1974 O.3     1  UNL1       -0.3455
      5 C           1.8217    1.6989   -0.0335 C.3     1  UNL1        0.1911
      6 H           2.5131    1.3910    0.7509 H       1  UNL1        0.0939
      7 C           2.3570    1.2433   -1.3935 C.3     1  UNL1        0.1509
      8 H           3.3511    1.6609   -1.5533 H       1  UNL1        0.0703
      9 C           2.4346   -0.2863   -1.4165 C.3     1  UNL1        0.0397
     10 H           3.1428   -0.6282   -0.6617 H       1  UNL1        0.0907
     11 C           4.3415   -0.7338   -2.8399 C.3     1  UNL1       -0.0444
     12 O           1.4786    1.6924   -2.4273 O.3     1  UNL1       -0.3812
     13 O           1.6935    3.1221   -0.0244 O.3     1  UNL1       -0.3371
     14 C           1.4202    3.6728    1.2656 C.3     1  UNL1        0.1325
     15 H           0.9959    2.9009    1.9077 H       1  UNL1        0.0681
     16 C           0.4239    4.8257    1.1274 C.3     1  UNL1        0.0104
     17 H           0.2154    5.2457    2.1113 H       1  UNL1        0.0878
     18 C           1.0195    5.9091    0.2261 C.3     1  UNL1        0.0381
     19 C           2.3188    6.4293    0.8443 C.3     1  UNL1        0.0104
     20 H           2.1104    6.8493    1.8283 H       1  UNL1        0.0878
     21 C           3.3151    5.2764    0.9826 C.3     1  UNL1        0.1336
     22 H           4.2408    5.6470    1.4230 H       1  UNL1        0.0681
     23 C           2.7195    4.1930    1.8838 C.3     1  UNL1        0.1181
     24 H           2.5111    4.6130    2.8678 H       1  UNL1        0.0649
     25 O           3.6501    3.1162    2.0130 O.3     1  UNL1       -0.3862
     26 O           3.5884    4.7257   -0.3074 O.3     1  UNL1       -0.3258
     27 C           4.7685    5.2457   -0.9232 C.3     1  UNL1        0.2452
     28 H           4.7681    6.3338   -0.8581 H       1  UNL1        0.1116
     29 C           4.8165    4.8153   -2.3959 C.3     1  UNL1        0.0430
     30 H           3.9245    5.1703   -2.9122 H       1  UNL1        0.0915
     31 C           6.0651    5.4339   -3.0338 C.3     1  UNL1        0.0178
     32 C           7.2492    5.2141   -2.1322 C.2     1  UNL1       -0.0355
     33 C           7.1219    4.8941   -0.8716 C.2     1  UNL1        0.1419
     34 O           5.9262    4.7227   -0.2658 O.2     1  UNL1       -0.4570
     35 C           8.3723    4.7068   -0.0516 C.3     1  UNL1        0.0231
     36 O           1.1228   -2.2876   -1.0627 O.3     1  UNL1       -0.3809
     37 H          -0.1200    0.6294   -2.1426 H       1  UNL1        0.0260
     38 H           0.4978   -0.6707   -3.1897 H       1  UNL1        0.0260
     39 H          -0.8685   -0.9848   -2.0929 H       1  UNL1        0.0260
     40 H           1.2374   -0.6591    1.0218 H       1  UNL1        0.0591
     41 H          -0.4423   -0.6969    0.4334 H       1  UNL1        0.0591
     42 H           4.6410   -1.0709   -3.8323 H       1  UNL1        0.0777
     43 H           4.7152    0.2761   -2.6712 H       1  UNL1        0.0777
     44 H           4.7561   -1.4050   -2.0878 H       1  UNL1        0.0777
     45 H           1.3818    2.6536   -2.4712 H       1  UNL1        0.2103
     46 H           1.2280    5.4891   -0.7579 H       1  UNL1        0.0377
     47 H           0.3097    6.7305    0.1276 H       1  UNL1        0.0377
     48 H           4.4985    3.3737    2.3989 H       1  UNL1        0.2100
     49 H           6.2511    4.9633   -3.9993 H       1  UNL1        0.0365
     50 H           5.9092    6.5035   -3.1749 H       1  UNL1        0.0365
     51 H           8.2421    5.3252   -2.5423 H       1  UNL1        0.0609
     52 H           8.3576    3.7210    0.4133 H       1  UNL1        0.0896
     53 H           9.2463    4.7909   -0.6974 H       1  UNL1        0.0896
     54 H           7.6026    5.7239    1.5644 H       1  UNL1        0.1998
     55 H           9.2633    5.6351    1.5555 H       1  UNL1        0.1998
     56 H           4.9817    3.0492   -3.4408 H       1  UNL1        0.1999
     57 H           5.6437    2.9922   -1.9162 H       1  UNL1        0.1999
     58 H           2.2512    8.2426   -0.1281 H       1  UNL1        0.1998
     59 H           3.7821    7.7839    0.3321 H       1  UNL1        0.1998
     60 H          -1.4984    5.0694    0.4320 H       1  UNL1        0.1998
     61 H          -0.6475    3.8741   -0.3508 H       1  UNL1        0.1998
     62 H           0.2790   -2.7193   -0.8707 H       1  UNL1        0.2105
     63 N           2.8691   -0.7390   -2.7515 N.4     1  UNL1        0.2310
     64 H           2.4848   -0.1083   -3.4647 H       1  UNL1        0.2015
     65 H           2.5234   -1.6919   -2.9152 H       1  UNL1        0.2015
     66 N           8.4341    5.7600    0.9771 N.4     1  UNL1        0.2240
     67 H           8.4807    6.6775    0.5185 H       1  UNL1        0.1998
     68 N           4.8667    3.3447   -2.4727 N.4     1  UNL1        0.2254
     69 H           3.9893    2.9574   -2.1062 H       1  UNL1        0.1999
     70 N           2.8932    7.4564   -0.0425 N.4     1  UNL1        0.2228
     71 H           3.0509    7.0499   -0.9721 H       1  UNL1        0.1998
     72 N          -0.8305    4.3097    0.5516 N.4     1  UNL1        0.2228
     73 H          -1.2304    3.6091    1.1869 H       1  UNL1        0.1998
@<TRIPOS>UNITY_ATOM_ATTR
63 1
charge 1
66 1
charge 1
68 1
charge 1
70 1
charge 1
72 1
charge 1
@<TRIPOS>BOND
     1     1     2    1
     2     1    37    1
     3     1    38    1
     4     1    39    1
     5     2     9    1
     6     2     3    1
     7     2    36    1
     8     3     4    1
     9     3    40    1
    10     3    41    1
    11     4     5    1
    12     5     6    1
    13     5     7    1
    14     5    13    1
    15     7     8    1
    16     7     9    1
    17     7    12    1
    18     9    10    1
    19     9    63    1
    20    11    42    1
    21    11    43    1
    22    11    44    1
    23    11    63    1
    24    12    45    1
    25    13    14    1
    26    14    15    1
    27    14    23    1
    28    14    16    1
    29    16    17    1
    30    16    18    1
    31    16    72    1
    32    18    19    1
    33    18    46    1
    34    18    47    1
    35    19    20    1
    36    19    21    1
    37    19    70    1
    38    21    22    1
    39    21    23    1
    40    21    26    1
    41    23    24    1
    42    23    25    1
    43    25    48    1
    44    26    27    1
    45    27    28    1
    46    27    34    1
    47    27    29    1
    48    29    30    1
    49    29    31    1
    50    29    68    1
    51    31    32    1
    52    31    49    1
    53    31    50    1
    54    32    33    2
    55    32    51    1
    56    33    34    1
    57    33    35    1
    58    35    52    1
    59    35    53    1
    60    35    66    1
    61    36    62    1
    62    54    66    1
    63    55    66    1
    64    56    68    1
    65    57    68    1
    66    58    70    1
    67    59    70    1
    68    60    72    1
    69    61    72    1
    70    63    64    1
    71    63    65    1
    72    66    67    1
    73    68    69    1
    74    70    71    1
    75    72    73    1
