@<TRIPOS>MOLECULE
ZINC02574862
 26 28 0 0 0
SMALL
GASTEIGER

@<TRIPOS>ATOM
      1 C           1.1727    2.0558    0.0019 C.ar    1  UNL1       -0.0230
      2 C           1.1515    3.4358    0.0122 C.ar    1  UNL1       -0.0169
      3 C          -0.0598    4.1179    0.0299 C.ar    1  UNL1        0.1263
      4 C          -1.2490    3.4068    0.0326 C.ar    1  UNL1        0.0292
      5 C          -1.2232    2.0227    0.0188 C.ar    1  UNL1       -0.0173
      6 C          -0.0162    1.3468    0.0094 C.ar    1  UNL1        0.1240
      7 F           0.0021   -0.0041    0.0020 F       1  UNL1       -0.2055
      8 C          -2.5754    4.1137    0.0416 C.3     1  UNL1        0.1442
      9 C          -2.4090    5.5685    0.4699 C.3     1  UNL1        0.0157
     10 C          -1.2350    6.1709   -0.3143 C.3     1  UNL1        0.0923
     11 O          -0.0423    5.4763    0.0520 O.3     1  UNL1       -0.4915
     12 C          -3.5467    3.4023    0.9545 C.2     1  UNL1        0.2487
     13 O          -3.4349    3.2226    2.1482 O.2     1  UNL1       -0.2726
     14 N          -4.5648    3.0093    0.1611 N.am    1  UNL1       -0.2381
     15 C          -4.3667    3.3732   -1.1118 C.2     1  UNL1        0.3070
     16 O          -5.1459    3.1323   -2.0129 O.2     1  UNL1       -0.2524
     17 N          -3.2072    4.0370   -1.2817 N.am    1  UNL1       -0.2811
     18 H           2.1158    1.5297   -0.0124 H       1  UNL1        0.0647
     19 H           2.0796    3.9881    0.0061 H       1  UNL1        0.0655
     20 H          -2.1498    1.4679    0.0200 H       1  UNL1        0.0651
     21 H          -3.3211    6.1230    0.2493 H       1  UNL1        0.0327
     22 H          -2.1995    5.6152    1.5385 H       1  UNL1        0.0327
     23 H          -1.4117    6.0564   -1.3838 H       1  UNL1        0.0697
     24 H          -1.1360    7.2286   -0.0706 H       1  UNL1        0.0697
     25 H          -5.3440    2.5238    0.4743 H       1  UNL1        0.1591
     26 H          -2.8587    4.3942   -2.1135 H       1  UNL1        0.1516
@<TRIPOS>BOND
     1     1     6   ar
     2     1     2   ar
     3     1    18    1
     4     2     3   ar
     5     2    19    1
     6     3    11    1
     7     3     4   ar
     8     4     5   ar
     9     4     8    1
    10     5     6   ar
    11     5    20    1
    12     6     7    1
    13     8    17    1
    14     8     9    1
    15     8    12    1
    16     9    10    1
    17     9    21    1
    18     9    22    1
    19    10    11    1
    20    10    23    1
    21    10    24    1
    22    12    13    2
    23    12    14   am
    24    14    15   am
    25    14    25    1
    26    15    16    2
    27    15    17   am
    28    17    26    1
