@<TRIPOS>MOLECULE
ZINC00968330
 45 47 0 0 0
SMALL
GASTEIGER

@<TRIPOS>ATOM
      1 C          -1.5116    5.8432    0.1565 C.3     1  UNL1        0.0059
      2 N          -0.2097    5.1834    0.0304 N.pl3   1  UNL1       -0.2778
      3 C           1.0101    5.9862   -0.0875 C.3     1  UNL1        0.0512
      4 C           1.2958    6.2659   -1.5643 C.3     1  UNL1        0.1053
      5 O           0.2534    7.0802   -2.1053 O.3     1  UNL1       -0.4904
      6 C           0.3555    7.4225   -3.4165 C.ar    1  UNL1        0.1206
      7 C           1.4395    6.9885   -4.1656 C.ar    1  UNL1       -0.0197
      8 C           1.5382    7.3335   -5.4996 C.ar    1  UNL1       -0.0551
      9 C           0.5632    8.1194   -6.0856 C.ar    1  UNL1       -0.0456
     10 C          -0.5153    8.5580   -5.3397 C.ar    1  UNL1       -0.0551
     11 C          -0.6213    8.2114   -4.0067 C.ar    1  UNL1       -0.0197
     12 C           0.6763    8.4990   -7.5396 C.3     1  UNL1       -0.0069
     13 C           1.4503    9.8128   -7.6650 C.3     1  UNL1        0.0945
     14 H           0.9614   10.6121   -7.1080 H       1  UNL1        0.0515
     15 C           1.6549   10.1978   -9.1232 C.2     1  UNL1        0.2336
     16 O           0.7273   10.4313   -9.8680 O.2     1  UNL1       -0.2741
     17 N           2.9143   10.2595   -9.5219 N.am    1  UNL1       -0.2463
     18 C           3.9595   10.0042   -8.7133 C.2     1  UNL1        0.2789
     19 O           5.1437   10.0345   -8.9865 O.2     1  UNL1       -0.2625
     20 S           3.2005    9.6095   -7.1446 S.3     1  UNL1       -0.0542
     21 C          -0.1317    3.7956    0.0227 C.ar    1  UNL1        0.2716
     22 C           1.1135    3.1750    0.0080 C.ar    1  UNL1        0.0264
     23 C           1.1764    1.7935    0.0005 C.ar    1  UNL1       -0.0486
     24 C          -0.0126    1.0758    0.0080 C.ar    1  UNL1        0.0022
     25 C          -1.2132    1.7566    0.0173 C.ar    1  UNL1        0.1710
     26 H          -1.7355    6.0067    1.2107 H       1  UNL1        0.0429
     27 H          -1.4850    6.8015   -0.3622 H       1  UNL1        0.0429
     28 H          -2.2829    5.2123   -0.2851 H       1  UNL1        0.0429
     29 H           0.8766    6.9297    0.4418 H       1  UNL1        0.0499
     30 H           1.8475    5.4408    0.3476 H       1  UNL1        0.0499
     31 H           2.2489    6.7863   -1.6578 H       1  UNL1        0.0712
     32 H           1.3411    5.3236   -2.1104 H       1  UNL1        0.0712
     33 H           2.2035    6.3780   -3.7072 H       1  UNL1        0.0654
     34 H           2.3800    6.9927   -6.0842 H       1  UNL1        0.0621
     35 H          -1.2756    9.1717   -5.7997 H       1  UNL1        0.0621
     36 H          -1.4640    8.5539   -3.4245 H       1  UNL1        0.0654
     37 H           1.2041    7.7133   -8.0802 H       1  UNL1        0.0329
     38 H          -0.3211    8.6232   -7.9614 H       1  UNL1        0.0329
     39 H           3.0939   10.5008  -10.4441 H       1  UNL1        0.1583
     40 H           2.0187    3.7642    0.0021 H       1  UNL1        0.0698
     41 H           2.1287    1.2842   -0.0114 H       1  UNL1        0.0622
     42 H           0.0021   -0.0041    0.0020 H       1  UNL1        0.0677
     43 H          -2.1401    1.2025    0.0190 H       1  UNL1        0.1376
     44 N          -1.3129    3.1129    0.0311 N.ar    1  UNL1       -0.1981
     45 H          -2.2203    3.5930    0.0469 H       1  UNL1        0.4542
@<TRIPOS>UNITY_ATOM_ATTR
44 1
charge 1
@<TRIPOS>BOND
     1     1     2    1
     2     1    26    1
     3     1    27    1
     4     1    28    1
     5     2     3    1
     6     2    21    1
     7     3     4    1
     8     3    29    1
     9     3    30    1
    10     4     5    1
    11     4    31    1
    12     4    32    1
    13     5     6    1
    14     6    11   ar
    15     6     7   ar
    16     7     8   ar
    17     7    33    1
    18     8     9   ar
    19     8    34    1
    20     9    10   ar
    21     9    12    1
    22    10    11   ar
    23    10    35    1
    24    11    36    1
    25    12    13    1
    26    12    37    1
    27    12    38    1
    28    13    14    1
    29    13    20    1
    30    13    15    1
    31    15    16    2
    32    15    17   am
    33    17    18   am
    34    17    39    1
    35    18    19    2
    36    18    20    1
    37    21    22   ar
    38    21    44   ar
    39    22    23   ar
    40    22    40    1
    41    23    24   ar
    42    23    41    1
    43    24    25   ar
    44    24    42    1
    45    25    43    1
    46    25    44   ar
    47    44    45    1
