@<TRIPOS>MOLECULE
ZINC15848232
 36 36 0 0 0
SMALL
GASTEIGER

@<TRIPOS>ATOM
      1 C          -3.6238    1.6493    0.0282 C.3     1  UNL1        0.0557
      2 C          -4.0757    1.9061   -1.4108 C.3     1  UNL1        0.0405
      3 CL         -5.6492    2.7863   -1.3985 Cl      1  UNL1       -0.1237
      4 N          -2.3452    0.9341    0.0182 N.am    1  UNL1       -0.1401
      5 C          -1.1873    1.6238    0.0165 C.2     1  UNL1        0.3246
      6 O          -1.2038    2.8385    0.0232 O.2     1  UNL1       -0.2507
      7 N          -0.0111    0.9658    0.0074 N.am    1  UNL1       -0.2876
      8 C           1.2475    1.7155   -0.0006 C.3     1  UNL1        0.1036
      9 H           1.1362    2.6206    0.5964 H       1  UNL1        0.0575
     10 C           2.3643    0.8472    0.5870 C.3     1  UNL1        0.1065
     11 H           3.2899    1.4215    0.6271 H       1  UNL1        0.0640
     12 C           2.5625   -0.3826   -0.3044 C.3     1  UNL1        0.1112
     13 H           1.6526   -0.9828   -0.3046 H       1  UNL1        0.0646
     14 C           2.8731    0.0760   -1.7316 C.3     1  UNL1        0.1129
     15 H           3.8047    0.6419   -1.7371 H       1  UNL1        0.0647
     16 O           1.8097    0.9041   -2.2065 O.3     1  UNL1       -0.3414
     17 C           1.6090    2.0931   -1.4396 C.3     1  UNL1        0.1777
     18 H           2.5240    2.6854   -1.4410 H       1  UNL1        0.0928
     19 O           0.5459    2.8565   -2.0133 O.3     1  UNL1       -0.3654
     20 C           3.0132   -1.1462   -2.6412 C.3     1  UNL1        0.0730
     21 O           3.4159   -0.7253   -3.9460 O.3     1  UNL1       -0.3924
     22 O           3.6508   -1.1632    0.1939 O.3     1  UNL1       -0.3865
     23 O           2.0017    0.4293    1.9045 O.3     1  UNL1       -0.3871
     24 N          -2.3277   -0.3557    0.0112 N.2     1  UNL1        0.0527
     25 O          -3.3742   -0.9790    0.0127 O.2     1  UNL1       -0.1256
     26 H          -4.3729    1.0471    0.5423 H       1  UNL1        0.0498
     27 H          -3.5039    2.6006    0.5466 H       1  UNL1        0.0498
     28 H          -3.3266    2.5082   -1.9249 H       1  UNL1        0.0446
     29 H          -4.1955    0.9548   -1.9292 H       1  UNL1        0.0446
     30 H           0.0021   -0.0041    0.0020 H       1  UNL1        0.1509
     31 H           0.7071    3.1308   -2.9265 H       1  UNL1        0.2125
     32 H           3.7635   -1.8214   -2.2295 H       1  UNL1        0.0584
     33 H           2.0556   -1.6630   -2.7055 H       1  UNL1        0.0584
     34 H           3.5245   -1.4500   -4.5770 H       1  UNL1        0.2095
     35 H           3.8361   -1.9569   -0.3264 H       1  UNL1        0.2100
     36 H           2.6648   -0.1254    2.3377 H       1  UNL1        0.2100
@<TRIPOS>BOND
     1     1     2    1
     2     1     4    1
     3     1    26    1
     4     1    27    1
     5     2     3    1
     6     2    28    1
     7     2    29    1
     8     4     5   am
     9     4    24    1
    10     5     6    2
    11     5     7   am
    12     7     8    1
    13     7    30    1
    14     8     9    1
    15     8    17    1
    16     8    10    1
    17    10    11    1
    18    10    12    1
    19    10    23    1
    20    12    13    1
    21    12    14    1
    22    12    22    1
    23    14    15    1
    24    14    16    1
    25    14    20    1
    26    16    17    1
    27    17    18    1
    28    17    19    1
    29    19    31    1
    30    20    21    1
    31    20    32    1
    32    20    33    1
    33    21    34    1
    34    22    35    1
    35    23    36    1
    36    24    25    2
