@<TRIPOS>MOLECULE
ZINC03830293
 73 76 0 0 0
SMALL
GASTEIGER

@<TRIPOS>ATOM
      1 C           2.6254   -1.6000    4.8088 C.3     1  UNL1       -0.0583
      2 C           3.7055   -1.1120    3.8436 C.3     1  UNL1        0.0042
      3 H           4.5729   -0.7555    4.3981 H       1  UNL1        0.0341
      4 C           3.1475    0.0232    2.9489 C.3     1  UNL1       -0.0426
      5 C           3.8433   -0.2195    1.5998 C.3     1  UNL1       -0.0253
      6 H           4.8952    0.0722    1.6921 H       1  UNL1        0.0311
      7 C           3.2395    0.5015    0.4306 C.3     1  UNL1        0.0003
      8 H           3.8835    0.2577   -0.4471 H       1  UNL1        0.0336
      9 C           3.2713    2.0183    0.5618 C.3     1  UNL1       -0.0432
     10 C           2.3492    2.5131    1.6595 C.3     1  UNL1       -0.0301
     11 C           1.1392    1.6457    1.8642 C.2     1  UNL1       -0.0532
     12 C           0.3679    1.9613    2.9221 C.2     1  UNL1       -0.0148
     13 C          -0.8029    1.1154    3.2332 C.2     1  UNL1        0.1787
     14 O          -1.7582    1.5490    3.8676 O.2     1  UNL1       -0.2879
     15 C          -0.7677   -0.2829    2.7489 C.2     1  UNL1       -0.0180
     16 C          -0.0020   -0.5707    1.6815 C.2     1  UNL1       -0.0674
     17 C           0.7703    0.5002    0.9863 C.3     1  UNL1        0.0443
     18 C           1.8441    0.0268    0.0515 C.3     1  UNL1        0.1526
     19 C           1.8922   -1.4801   -0.1718 C.3     1  UNL1        0.0910
     20 H           2.6206   -1.6831   -0.9760 H       1  UNL1        0.0626
     21 C           2.3676   -2.1886    1.0933 C.3     1  UNL1       -0.0141
     22 C           3.7866   -1.7585    1.4580 C.3     1  UNL1        0.0208
     23 C           4.1214   -2.2475    2.8881 C.3     1  UNL1        0.1822
     24 C           3.3984   -3.5183    3.2379 C.2     1  UNL1        0.2144
     25 O           2.1928   -3.5278    3.3064 O.2     1  UNL1       -0.2895
     26 C           4.1781   -4.7804    3.5031 C.3     1  UNL1        0.1542
     27 O           3.2579   -5.8890    3.6835 O.3     1  UNL1       -0.4570
     28 C           3.7961   -7.0937    3.9299 C.2     1  UNL1        0.3043
     29 O           4.9963   -7.2178    3.9927 O.2     1  UNL1       -0.2512
     30 C           2.9033   -8.2915    4.1282 C.3     1  UNL1        0.0332
     31 O           5.5588   -2.4645    3.0015 O.3     1  UNL1       -0.4492
     32 C           6.0341   -2.7752    4.2178 C.2     1  UNL1        0.3106
     33 O           5.2983   -2.7595    5.1761 O.2     1  UNL1       -0.2505
     34 C           7.4854   -3.1436    4.3882 C.3     1  UNL1        0.0509
     35 C           8.3645   -1.9763    3.9349 C.3     1  UNL1       -0.0525
     36 C           7.7643   -3.4502    5.8610 C.3     1  UNL1       -0.0525
     37 C           4.8194   -2.2642    0.4441 C.3     1  UNL1       -0.0551
     38 O           0.6357   -1.9880   -0.6078 O.3     1  UNL1       -0.3886
     39 F           1.5555    0.6083   -1.2039 F       1  UNL1       -0.2377
     40 C          -0.2686    1.1209    0.0287 C.3     1  UNL1       -0.0493
     41 H           2.9251   -2.5571    5.2356 H       1  UNL1        0.0234
     42 H           2.4957   -0.8703    5.6080 H       1  UNL1        0.0234
     43 H           1.6851   -1.7206    4.2708 H       1  UNL1        0.0234
     44 H           2.0678   -0.0775    2.8606 H       1  UNL1        0.0272
     45 H           3.4197    0.9928    3.3621 H       1  UNL1        0.0272
     46 H           4.3001    2.3427    0.7772 H       1  UNL1        0.0272
     47 H           2.9828    2.4762   -0.3944 H       1  UNL1        0.0272
     48 H           2.8975    2.5869    2.6019 H       1  UNL1        0.0310
     49 H           2.0016    3.5242    1.4046 H       1  UNL1        0.0310
     50 H           0.6111    2.8327    3.5370 H       1  UNL1        0.0656
     51 H          -1.3491   -1.0643    3.2411 H       1  UNL1        0.0653
     52 H           0.0266   -1.6071    1.3477 H       1  UNL1        0.0583
     53 H           1.6913   -1.9634    1.9123 H       1  UNL1        0.0298
     54 H           2.3517   -3.2648    0.8931 H       1  UNL1        0.0298
     55 H           4.7799   -4.9697    2.7272 H       1  UNL1        0.0780
     56 H           4.7769   -4.6547    4.4051 H       1  UNL1        0.0780
     57 H           2.7210   -8.7719    3.1669 H       1  UNL1        0.0342
     58 H           3.3880   -8.9984    4.8016 H       1  UNL1        0.0342
     59 H           1.9551   -7.9705    4.5595 H       1  UNL1        0.0342
     60 H           7.7102   -4.0233    3.7850 H       1  UNL1        0.0408
     61 H           8.1659   -1.7579    2.8857 H       1  UNL1        0.0237
     62 H           8.1397   -1.0966    4.5381 H       1  UNL1        0.0237
     63 H           9.4142   -2.2428    4.0582 H       1  UNL1        0.0237
     64 H           7.1380   -4.2819    6.1839 H       1  UNL1        0.0237
     65 H           8.8140   -3.7167    5.9842 H       1  UNL1        0.0237
     66 H           7.5395   -2.5706    6.4641 H       1  UNL1        0.0237
     67 H           4.5932   -1.8543   -0.5402 H       1  UNL1        0.0237
     68 H           5.8157   -1.9452    0.7503 H       1  UNL1        0.0237
     69 H           4.7837   -3.3528    0.4013 H       1  UNL1        0.0237
     70 H           0.6289   -2.9430   -0.7599 H       1  UNL1        0.2099
     71 H          -1.1037    1.5173    0.6061 H       1  UNL1        0.0242
     72 H           0.1963    1.9274   -0.5384 H       1  UNL1        0.0242
     73 H          -0.6320    0.3565   -0.6581 H       1  UNL1        0.0242
@<TRIPOS>BOND
     1     1     2    1
     2     1    41    1
     3     1    42    1
     4     1    43    1
     5     2     3    1
     6     2    23    1
     7     2     4    1
     8     4     5    1
     9     4    44    1
    10     4    45    1
    11     5     6    1
    12     5    22    1
    13     5     7    1
    14     7     8    1
    15     7    18    1
    16     7     9    1
    17     9    10    1
    18     9    46    1
    19     9    47    1
    20    10    11    1
    21    10    48    1
    22    10    49    1
    23    11    17    1
    24    11    12    2
    25    12    13    1
    26    12    50    1
    27    13    14    2
    28    13    15    1
    29    15    16    2
    30    15    51    1
    31    16    17    1
    32    16    52    1
    33    17    18    1
    34    17    40    1
    35    18    19    1
    36    18    39    1
    37    19    20    1
    38    19    21    1
    39    19    38    1
    40    21    22    1
    41    21    53    1
    42    21    54    1
    43    22    23    1
    44    22    37    1
    45    23    24    1
    46    23    31    1
    47    24    25    2
    48    24    26    1
    49    26    27    1
    50    26    55    1
    51    26    56    1
    52    27    28    1
    53    28    29    2
    54    28    30    1
    55    30    57    1
    56    30    58    1
    57    30    59    1
    58    31    32    1
    59    32    33    2
    60    32    34    1
    61    34    35    1
    62    34    36    1
    63    34    60    1
    64    35    61    1
    65    35    62    1
    66    35    63    1
    67    36    64    1
    68    36    65    1
    69    36    66    1
    70    37    67    1
    71    37    68    1
    72    37    69    1
    73    38    70    1
    74    40    71    1
    75    40    72    1
    76    40    73    1
