@<TRIPOS>MOLECULE
ZINC01530656
 55 57 0 0 0
SMALL
GASTEIGER

@<TRIPOS>ATOM
      1 C          -2.1061    7.2881   -2.7027 C.ar    1  UNL1       -0.0617
      2 C          -3.2224    6.5392   -3.0252 C.ar    1  UNL1       -0.0613
      3 C          -3.1708    5.1593   -2.9624 C.ar    1  UNL1       -0.0529
      4 C          -2.0026    4.5281   -2.5779 C.ar    1  UNL1        0.0048
      5 C          -0.8877    5.2771   -2.2508 C.ar    1  UNL1       -0.0529
      6 C          -0.9381    6.6569   -2.3177 C.ar    1  UNL1       -0.0613
      7 C          -1.9463    3.0237   -2.5095 C.3     1  UNL1        0.0313
      8 H          -2.9585    2.6249   -2.4424 H       1  UNL1        0.0958
      9 C          -1.2769    2.4892   -3.7494 C.ar    1  UNL1        0.0049
     10 C           0.1015    2.5071   -3.8528 C.ar    1  UNL1       -0.0515
     11 C           0.7162    2.0118   -4.9873 C.ar    1  UNL1       -0.0429
     12 C          -0.0488    1.5084   -6.0244 C.ar    1  UNL1        0.0410
     13 C          -1.4285    1.4960   -5.9228 C.ar    1  UNL1       -0.0429
     14 C          -2.0418    1.9864   -4.7854 C.ar    1  UNL1       -0.0515
     15 CL          0.7222    0.8932   -7.4530 Cl      1  UNL1       -0.0835
     16 C          -1.2034    1.1558   -1.1591 C.3     1  UNL1        0.0104
     17 C          -0.3305    0.7664    0.0363 C.3     1  UNL1        0.0096
     18 C          -0.8063    2.8987    1.0783 C.3     1  UNL1        0.0096
     19 C          -1.6791    3.2881   -0.1171 C.3     1  UNL1        0.0104
     20 C          -0.0625    1.0307    2.4286 C.3     1  UNL1       -0.0075
     21 C          -0.5477    1.8190    3.6468 C.3     1  UNL1        0.0876
     22 O          -1.9193    1.5082    3.8999 O.3     1  UNL1       -0.3723
     23 C          -2.4733    2.1957    5.0235 C.3     1  UNL1        0.0710
     24 C          -3.9376    1.7886    5.1992 C.3     1  UNL1        0.0676
     25 O          -4.0096    0.4007    5.5321 O.3     1  UNL1       -0.3927
     26 H          -2.1465    8.3662   -2.7517 H       1  UNL1        0.0618
     27 H          -4.1350    7.0323   -3.3260 H       1  UNL1        0.0618
     28 H          -4.0430    4.5743   -3.2141 H       1  UNL1        0.0622
     29 H           0.0236    4.7841   -1.9461 H       1  UNL1        0.0622
     30 H          -0.0658    7.2419   -2.0660 H       1  UNL1        0.0618
     31 H           0.6984    2.9041   -3.0450 H       1  UNL1        0.0623
     32 H           1.7933    2.0217   -5.0661 H       1  UNL1        0.0632
     33 H          -2.0262    1.1035   -6.7322 H       1  UNL1        0.0632
     34 H          -3.1189    1.9771   -4.7060 H       1  UNL1        0.0623
     35 H          -0.8173    0.6812   -2.0612 H       1  UNL1        0.0868
     36 H          -2.2275    0.8262   -0.9842 H       1  UNL1        0.0868
     37 H          -0.3697   -0.3136    0.1787 H       1  UNL1        0.0868
     38 H           0.6991    1.0714   -0.1506 H       1  UNL1        0.0868
     39 H           0.2179    3.2282    0.9034 H       1  UNL1        0.0868
     40 H          -1.1922    3.3736    1.9803 H       1  UNL1        0.0868
     41 H          -1.6399    4.3680   -0.2596 H       1  UNL1        0.0868
     42 H          -2.7088    2.9830    0.0694 H       1  UNL1        0.0868
     43 H          -0.2061   -0.0354    2.6050 H       1  UNL1        0.0837
     44 H           0.9959    1.2323    2.2633 H       1  UNL1        0.0837
     45 H           0.0522    1.5500    4.5162 H       1  UNL1        0.0613
     46 H          -0.4470    2.8868    3.4522 H       1  UNL1        0.0613
     47 H          -1.9133    1.9345    5.9215 H       1  UNL1        0.0583
     48 H          -2.4126    3.2712    4.8575 H       1  UNL1        0.0583
     49 H          -4.3850    2.3778    5.9997 H       1  UNL1        0.0580
     50 H          -4.4786    1.9679    4.2701 H       1  UNL1        0.0580
     51 H          -4.9104    0.0728    5.6585 H       1  UNL1        0.2095
     52 N          -1.1529    2.6232   -1.3280 N.4     1  UNL1        0.2514
     53 H          -0.1770    2.9096   -1.4687 H       1  UNL1        0.2048
     54 N          -0.8563    1.4310    1.2472 N.4     1  UNL1        0.2443
     55 H          -1.8321    1.1442    1.3882 H       1  UNL1        0.2038
@<TRIPOS>UNITY_ATOM_ATTR
52 1
charge 1
54 1
charge 1
@<TRIPOS>BOND
     1     1     6   ar
     2     1     2   ar
     3     1    26    1
     4     2     3   ar
     5     2    27    1
     6     3     4   ar
     7     3    28    1
     8     4     5   ar
     9     4     7    1
    10     5     6   ar
    11     5    29    1
    12     6    30    1
    13     7     8    1
    14     7     9    1
    15     7    52    1
    16     9    14   ar
    17     9    10   ar
    18    10    11   ar
    19    10    31    1
    20    11    12   ar
    21    11    32    1
    22    12    13   ar
    23    12    15    1
    24    13    14   ar
    25    13    33    1
    26    14    34    1
    27    16    17    1
    28    16    35    1
    29    16    36    1
    30    16    52    1
    31    17    37    1
    32    17    38    1
    33    17    54    1
    34    18    19    1
    35    18    39    1
    36    18    40    1
    37    18    54    1
    38    19    41    1
    39    19    42    1
    40    19    52    1
    41    20    21    1
    42    20    43    1
    43    20    44    1
    44    20    54    1
    45    21    22    1
    46    21    45    1
    47    21    46    1
    48    22    23    1
    49    23    24    1
    50    23    47    1
    51    23    48    1
    52    24    25    1
    53    24    49    1
    54    24    50    1
    55    25    51    1
    56    52    53    1
    57    54    55    1
