@<TRIPOS>MOLECULE
ZINC00002226
 29 31 0 0 0
SMALL
GASTEIGER

@<TRIPOS>ATOM
      1 C          -1.2381    3.5346    7.4869 C.3     1  UNL1       -0.0388
      2 C          -2.4823    3.4768    6.6386 C.ar    1  UNL1       -0.0330
      3 C          -3.6909    3.8232    7.1496 C.ar    1  UNL1        0.0265
      4 C          -4.8413    3.7610    6.3349 C.ar    1  UNL1        0.3375
      5 O          -5.9192    4.0748    6.8068 O.2     1  UNL1       -0.2452
      6 O          -4.7795    3.3660    5.0542 O.2     1  UNL1       -0.4217
      7 C          -3.6088    3.0068    4.4807 C.ar    1  UNL1        0.1457
      8 C          -2.4197    3.0453    5.2387 C.ar    1  UNL1        0.0216
      9 C          -1.2059    2.6764    4.6595 C.ar    1  UNL1       -0.0400
     10 C          -1.1814    2.2732    3.3315 C.ar    1  UNL1        0.0215
     11 C          -0.1198    1.8286    2.4176 C.ar    1  UNL1       -0.0132
     12 C          -0.7181    1.5718    1.2479 C.ar    1  UNL1        0.1033
     13 O          -2.0379    1.8152    1.3360 O.2     1  UNL1       -0.4596
     14 C          -2.3696    2.2349    2.5742 C.ar    1  UNL1        0.1416
     15 C          -3.5733    2.6028    3.1577 C.ar    1  UNL1        0.0353
     16 C          -4.8444    2.5627    2.3492 C.3     1  UNL1       -0.0327
     17 C          -0.0127    1.0858    0.0080 C.3     1  UNL1       -0.0063
     18 H          -1.0929    2.5759    7.9848 H       1  UNL1        0.0278
     19 H          -0.3768    3.7498    6.8545 H       1  UNL1        0.0278
     20 H          -1.3447    4.3200    8.2352 H       1  UNL1        0.0278
     21 H          -3.7721    4.1452    8.1773 H       1  UNL1        0.0692
     22 H          -0.2943    2.7050    5.2379 H       1  UNL1        0.0632
     23 H           0.9315    1.7290    2.6441 H       1  UNL1        0.0658
     24 H          -5.3063    1.5803    2.4468 H       1  UNL1        0.0280
     25 H          -5.5318    3.3254    2.7150 H       1  UNL1        0.0280
     26 H          -4.6144    2.7535    1.3010 H       1  UNL1        0.0280
     27 H           0.0021   -0.0041    0.0020 H       1  UNL1        0.0308
     28 H           1.0099    1.4631    0.0003 H       1  UNL1        0.0308
     29 H          -0.5399    1.4469   -0.8751 H       1  UNL1        0.0308
@<TRIPOS>BOND
     1     1     2    1
     2     1    18    1
     3     1    19    1
     4     1    20    1
     5     2     8   ar
     6     2     3   ar
     7     3     4   ar
     8     3    21    1
     9     4     5    2
    10     4     6   ar
    11     6     7   ar
    12     7    15   ar
    13     7     8   ar
    14     8     9   ar
    15     9    10   ar
    16     9    22    1
    17    10    14   ar
    18    10    11   ar
    19    11    12   ar
    20    11    23    1
    21    12    13   ar
    22    12    17    1
    23    13    14   ar
    24    14    15   ar
    25    15    16    1
    26    16    24    1
    27    16    25    1
    28    16    26    1
    29    17    27    1
    30    17    28    1
    31    17    29    1
