@<TRIPOS>MOLECULE
ZINC08101112
 84 87 0 0 0
SMALL
GASTEIGER

@<TRIPOS>ATOM
      1 C          -0.9321   -2.5346   -0.1500 C.3     1  UNL1       -0.0598
      2 C          -0.2217   -1.9786   -1.3969 C.3     1  UNL1       -0.0145
      3 H           0.2156   -2.8112   -1.9364 H       1  UNL1        0.0326
      4 C           0.8110   -0.9444   -0.9818 C.3     1  UNL1       -0.0303
      5 H           0.2533   -0.1266   -0.4935 H       1  UNL1        0.0310
      6 C           1.8714   -1.4234   -0.0070 C.3     1  UNL1       -0.0489
      7 C           2.4769   -0.1695    0.6416 C.3     1  UNL1       -0.0465
      8 C           2.7259    0.9319   -0.3815 C.3     1  UNL1       -0.0203
      9 C           2.7363    0.4358   -1.8180 C.3     1  UNL1       -0.0034
     10 H           3.5902   -0.2660   -1.9099 H       1  UNL1        0.0336
     11 C           1.5118   -0.3728   -2.2162 C.3     1  UNL1       -0.0232
     12 C           0.4812    0.3963   -3.0287 C.3     1  UNL1       -0.0447
     13 C          -0.6499   -0.5462   -3.4494 C.3     1  UNL1       -0.0261
     14 C          -1.2752   -1.2715   -2.2663 C.3     1  UNL1        0.0581
     15 H          -1.9784   -2.0239   -2.6389 H       1  UNL1        0.0596
     16 O          -1.9987   -0.3374   -1.4596 O.3     1  UNL1       -0.3915
     17 C           2.0275   -1.5393   -3.0781 C.3     1  UNL1       -0.0589
     18 C           2.9904    1.5573   -2.8263 C.3     1  UNL1        0.0596
     19 H           2.1519    2.2491   -2.8459 H       1  UNL1        0.0596
     20 C           4.2815    2.3246   -2.4725 C.3     1  UNL1       -0.0194
     21 C           4.9441    1.5903   -1.3354 C.3     1  UNL1       -0.0075
     22 H           5.1187    0.5464   -1.6188 H       1  UNL1        0.0353
     23 C           4.0361    1.6421   -0.0813 C.3     1  UNL1       -0.0160
     24 C           4.9676    0.9826    0.9471 C.3     1  UNL1       -0.0052
     25 C           6.3412    1.6376    0.6202 C.3     1  UNL1        0.1255
     26 H           7.1304    0.8886    0.6903 H       1  UNL1        0.0782
     27 C           6.2417    2.1512   -0.8137 C.2     1  UNL1       -0.0210
     28 C           7.1096    2.9190   -1.4586 C.2     1  UNL1       -0.0218
     29 C           6.7442    3.5102   -2.7958 C.3     1  UNL1       -0.0225
     30 C           7.1104    2.5239   -3.9067 C.3     1  UNL1       -0.0305
     31 C           6.6350    3.0609   -5.2321 C.2     1  UNL1       -0.0850
     32 C           7.5011    3.3409   -6.1741 C.2     1  UNL1       -0.0796
     33 C           8.9783    3.2322   -5.8961 C.3     1  UNL1       -0.0440
     34 C           7.0204    3.7717   -7.5359 C.3     1  UNL1       -0.0440
     35 C           8.4276    3.1932   -0.8694 C.2     1  UNL1        0.0678
     36 O           8.7665    2.6272    0.1513 O.co2   1  UNL1       -0.5450
     37 O           6.6104    2.7315    1.5323 O.3     1  UNL1       -0.4570
     38 C           7.1822    2.4195    2.7060 C.2     1  UNL1        0.3045
     39 O           7.5275    1.2829    2.9266 O.2     1  UNL1       -0.2511
     40 C           7.3933    3.4870    3.7485 C.3     1  UNL1        0.0333
     41 C           3.7461    3.0884    0.3384 C.3     1  UNL1       -0.0584
     42 O           3.1618    1.0005   -4.1366 O.3     1  UNL1       -0.3915
     43 C           1.6254    1.9959   -0.2114 C.3     1  UNL1       -0.0587
     44 H          -1.3803   -1.7134    0.4093 H       1  UNL1        0.0233
     45 H          -1.7108   -3.2330   -0.4566 H       1  UNL1        0.0233
     46 H          -0.2084   -3.0513    0.4804 H       1  UNL1        0.0233
     47 H           1.4401   -2.0498    0.7721 H       1  UNL1        0.0268
     48 H           2.6532   -1.9797   -0.5209 H       1  UNL1        0.0268
     49 H           3.3958   -0.4491    1.1477 H       1  UNL1        0.0271
     50 H           1.7709    0.2032    1.3934 H       1  UNL1        0.0271
     51 H           0.0671    1.2098   -2.4296 H       1  UNL1        0.0271
     52 H           0.9425    0.8166   -3.9236 H       1  UNL1        0.0271
     53 H          -1.4333    0.0586   -3.9332 H       1  UNL1        0.0290
     54 H          -0.3011   -1.2636   -4.1883 H       1  UNL1        0.0290
     55 H          -2.6831    0.1491   -1.9393 H       1  UNL1        0.2098
     56 H           1.1879   -2.1628   -3.3855 H       1  UNL1        0.0235
     57 H           2.5293   -1.1443   -3.9615 H       1  UNL1        0.0235
     58 H           2.7305   -2.1369   -2.4977 H       1  UNL1        0.0235
     59 H           4.9438    2.3162   -3.3493 H       1  UNL1        0.0296
     60 H           4.0550    3.3557   -2.2242 H       1  UNL1        0.0296
     61 H           5.0306   -0.0938    0.7860 H       1  UNL1        0.0310
     62 H           4.6602    1.2160    1.9628 H       1  UNL1        0.0310
     63 H           5.6729    3.7087   -2.8248 H       1  UNL1        0.0317
     64 H           7.2905    4.4419   -2.9426 H       1  UNL1        0.0317
     65 H           8.1922    2.3933   -3.9346 H       1  UNL1        0.0311
     66 H           6.6334    1.5634   -3.7116 H       1  UNL1        0.0311
     67 H           5.5801    3.2150   -5.4052 H       1  UNL1        0.0572
     68 H           9.3054    2.2065   -6.0658 H       1  UNL1        0.0274
     69 H           9.5234    3.9022   -6.5610 H       1  UNL1        0.0274
     70 H           9.1744    3.5095   -4.8603 H       1  UNL1        0.0274
     71 H           5.9306    3.7915   -7.5470 H       1  UNL1        0.0274
     72 H           7.4042    4.7673   -7.7585 H       1  UNL1        0.0274
     73 H           7.3787    3.0678   -8.2871 H       1  UNL1        0.0274
     74 H           7.0219    4.4404    3.3728 H       1  UNL1        0.0342
     75 H           6.8537    3.2195    4.6570 H       1  UNL1        0.0342
     76 H           8.4571    3.5733    3.9699 H       1  UNL1        0.0342
     77 H           3.2120    3.5991   -0.4629 H       1  UNL1        0.0235
     78 H           3.1347    3.0892    1.2407 H       1  UNL1        0.0235
     79 H           4.6856    3.6047    0.5356 H       1  UNL1        0.0235
     80 H           3.3269    1.6590   -4.8252 H       1  UNL1        0.2098
     81 H           0.6523    1.5475   -0.4119 H       1  UNL1        0.0235
     82 H           1.6454    2.3795    0.8087 H       1  UNL1        0.0235
     83 H           1.7995    2.8138   -0.9106 H       1  UNL1        0.0235
     84 O           9.2606    4.0725   -1.4610 O.co2   1  UNL1       -0.5450
@<TRIPOS>UNITY_ATOM_ATTR
84 1
charge -1
@<TRIPOS>BOND
     1     1     2    1
     2     1    44    1
     3     1    45    1
     4     1    46    1
     5     2     3    1
     6     2    14    1
     7     2     4    1
     8     4     5    1
     9     4    11    1
    10     4     6    1
    11     6     7    1
    12     6    47    1
    13     6    48    1
    14     7     8    1
    15     7    49    1
    16     7    50    1
    17     8    23    1
    18     8     9    1
    19     8    43    1
    20     9    10    1
    21     9    11    1
    22     9    18    1
    23    11    12    1
    24    11    17    1
    25    12    13    1
    26    12    51    1
    27    12    52    1
    28    13    14    1
    29    13    53    1
    30    13    54    1
    31    14    15    1
    32    14    16    1
    33    16    55    1
    34    17    56    1
    35    17    57    1
    36    17    58    1
    37    18    19    1
    38    18    20    1
    39    18    42    1
    40    20    21    1
    41    20    59    1
    42    20    60    1
    43    21    22    1
    44    21    27    1
    45    21    23    1
    46    23    24    1
    47    23    41    1
    48    24    25    1
    49    24    61    1
    50    24    62    1
    51    25    26    1
    52    25    27    1
    53    25    37    1
    54    27    28    2
    55    28    29    1
    56    28    35    1
    57    29    30    1
    58    29    63    1
    59    29    64    1
    60    30    31    1
    61    30    65    1
    62    30    66    1
    63    31    32    2
    64    31    67    1
    65    32    33    1
    66    32    34    1
    67    33    68    1
    68    33    69    1
    69    33    70    1
    70    34    71    1
    71    34    72    1
    72    34    73    1
    73    35    36   ar
    74    35    84   ar
    75    37    38    1
    76    38    39    2
    77    38    40    1
    78    40    74    1
    79    40    75    1
    80    40    76    1
    81    41    77    1
    82    41    78    1
    83    41    79    1
    84    42    80    1
    85    43    81    1
    86    43    82    1
    87    43    83    1
