@<TRIPOS>MOLECULE
ZINC02002230
 52 53 0 0 0
SMALL
GASTEIGER

@<TRIPOS>ATOM
      1 C          -1.3841    5.8525    4.3182 C.3     1  UNL1       -0.0651
      2 C          -0.9366    5.4257    2.9187 C.3     1  UNL1       -0.0511
      3 C          -1.0259    3.9032    2.7969 C.3     1  UNL1       -0.0128
      4 C          -0.5783    3.4764    1.3975 C.3     1  UNL1       -0.0319
      5 C          -2.0595    1.5614    1.3546 C.3     1  UNL1       -0.0319
      6 C          -2.0946    0.0757    1.7183 C.3     1  UNL1       -0.0128
      7 C          -3.5456   -0.3655    1.9210 C.3     1  UNL1       -0.0511
      8 C          -3.5807   -1.8512    2.2847 C.3     1  UNL1       -0.0651
      9 C          -0.0236    1.5469    0.0440 C.3     1  UNL1       -0.0159
     10 C           1.4969    1.5942    0.2078 C.3     1  UNL1        0.0533
     11 N           2.1340    1.0138   -0.9769 N.pl3   1  UNL1       -0.2921
     12 C           3.5039    0.9474   -1.0572 C.ar    1  UNL1        0.3148
     13 N           4.2098    0.4540   -2.0574 N.ar    1  UNL1       -0.1739
     14 C           5.5021    0.6017   -1.6938 C.ar    1  UNL1        0.2037
     15 N           5.5127    1.1665   -0.5140 N.ar    1  UNL1       -0.0540
     16 O           4.3794    1.3767   -0.1371 O.2     1  UNL1       -0.3166
     17 C           6.6905    0.1982   -2.4865 C.ar    1  UNL1        0.0225
     18 C           6.5282   -0.4015   -3.7335 C.ar    1  UNL1       -0.0509
     19 C           7.6368   -0.7691   -4.4691 C.ar    1  UNL1       -0.0611
     20 C           8.9068   -0.5537   -3.9651 C.ar    1  UNL1       -0.0617
     21 C           9.0735    0.0358   -2.7250 C.ar    1  UNL1       -0.0611
     22 C           7.9719    0.4128   -1.9837 C.ar    1  UNL1       -0.0509
     23 H          -2.4136    5.5346    4.4831 H       1  UNL1        0.0230
     24 H          -0.7371    5.3898    5.0634 H       1  UNL1        0.0230
     25 H          -1.3205    6.9372    4.4049 H       1  UNL1        0.0230
     26 H           0.0929    5.7436    2.7538 H       1  UNL1        0.0264
     27 H          -1.5836    5.8884    2.1735 H       1  UNL1        0.0264
     28 H          -2.0553    3.5852    2.9619 H       1  UNL1        0.0317
     29 H          -0.3789    3.4405    3.5422 H       1  UNL1        0.0317
     30 H           0.4512    3.7943    1.2325 H       1  UNL1        0.0814
     31 H          -1.2253    3.9391    0.6522 H       1  UNL1        0.0814
     32 H          -2.5877    2.1347    2.1165 H       1  UNL1        0.0814
     33 H          -2.5416    1.7105    0.3884 H       1  UNL1        0.0814
     34 H          -1.6471   -0.5063    0.9127 H       1  UNL1        0.0317
     35 H          -1.5336   -0.0864    2.6387 H       1  UNL1        0.0317
     36 H          -3.9931    0.2165    2.7266 H       1  UNL1        0.0264
     37 H          -4.1066   -0.2034    1.0006 H       1  UNL1        0.0264
     38 H          -4.6144   -2.1656    2.4291 H       1  UNL1        0.0230
     39 H          -3.1331   -2.4332    1.4791 H       1  UNL1        0.0230
     40 H          -3.0197   -2.0133    3.2051 H       1  UNL1        0.0230
     41 H          -0.3200    2.1902   -0.7845 H       1  UNL1        0.0830
     42 H          -0.3351    0.5228   -0.1617 H       1  UNL1        0.0830
     43 H           1.8179    2.6296    0.3225 H       1  UNL1        0.0515
     44 H           1.7851    1.0245    1.0912 H       1  UNL1        0.0515
     45 H           1.5886    0.6764   -1.7046 H       1  UNL1        0.1506
     46 H           5.5370   -0.5742   -4.1259 H       1  UNL1        0.0625
     47 H           7.5123   -1.2297   -5.4379 H       1  UNL1        0.0618
     48 H           9.7714   -0.8466   -4.5422 H       1  UNL1        0.0618
     49 H          10.0673    0.2016   -2.3362 H       1  UNL1        0.0618
     50 H           8.1032    0.8736   -1.0158 H       1  UNL1        0.0625
     51 N          -0.6498    2.0031    1.3027 N.4     1  UNL1        0.2363
     52 H          -0.1424    1.5928    2.0955 H       1  UNL1        0.2034
@<TRIPOS>UNITY_ATOM_ATTR
51 1
charge 1
@<TRIPOS>BOND
     1     1     2    1
     2     1    23    1
     3     1    24    1
     4     1    25    1
     5     2     3    1
     6     2    26    1
     7     2    27    1
     8     3     4    1
     9     3    28    1
    10     3    29    1
    11     4    30    1
    12     4    31    1
    13     4    51    1
    14     5     6    1
    15     5    32    1
    16     5    33    1
    17     5    51    1
    18     6     7    1
    19     6    34    1
    20     6    35    1
    21     7     8    1
    22     7    36    1
    23     7    37    1
    24     8    38    1
    25     8    39    1
    26     8    40    1
    27     9    10    1
    28     9    41    1
    29     9    42    1
    30     9    51    1
    31    10    11    1
    32    10    43    1
    33    10    44    1
    34    11    12    1
    35    11    45    1
    36    12    16   ar
    37    12    13   ar
    38    13    14   ar
    39    14    15   ar
    40    14    17    1
    41    15    16   ar
    42    17    22   ar
    43    17    18   ar
    44    18    19   ar
    45    18    46    1
    46    19    20   ar
    47    19    47    1
    48    20    21   ar
    49    20    48    1
    50    21    22   ar
    51    21    49    1
    52    22    50    1
    53    51    52    1
