@<TRIPOS>MOLECULE
ZINC04676386
 55 58 0 0 0
SMALL
GASTEIGER

@<TRIPOS>ATOM
      1 C          -0.8495    1.5832    1.3435 C.3     1  UNL1       -0.0215
      2 C           0.2832    0.8254    0.7001 C.ar    1  UNL1        0.0502
      3 C           0.1201   -0.4595    0.3041 C.ar    1  UNL1        0.0187
      4 S           1.7406   -0.8110   -0.3615 S.2     1  UNL1       -0.0653
      5 C           2.4555    0.7400   -0.0477 C.ar    1  UNL1        0.1354
      6 N           1.4581    1.3969    0.5147 N.ar    1  UNL1       -0.2376
      7 S           4.0921    1.2948   -0.3920 S.3     1  UNL1       -0.0944
      8 C           3.9902    2.9871    0.2421 C.3     1  UNL1        0.0241
      9 C           5.3160    3.6768    0.0483 C.2     1  UNL1       -0.0264
     10 CA          6.1900    3.5389    1.0351 C.2     1  UNL1        0.0607
     11 N           7.4341    4.1811    0.9711 N.am    1  UNL1       -0.2533
     12 C           8.0972    4.7529   -0.2320 C.3     1  UNL1        0.1041
     13 H           8.6207    4.0265   -0.8537 H       1  UNL1        0.0644
     14 CA          9.0007    5.5855    0.6587 C.3     1  UNL1        0.1286
     15 HA          8.7274    6.6391    0.7173 H       1  UNL1        0.0622
     16 C           8.3798    4.7029    1.7437 C.2     1  UNL1        0.2438
     17 O           8.6612    4.5312    2.9110 O.2     1  UNL1       -0.2731
     18 N          10.4327    5.3665    0.4409 N.am    1  UNL1       -0.2963
     19 C          11.3178    6.3332    0.7550 C.2     1  UNL1        0.2684
     20 O          10.9396    7.3465    1.3087 O.2     1  UNL1       -0.2683
     21 C          12.7520    6.1603    0.4250 C.2     1  UNL1        0.1897
     22 N          13.6259    7.0327    0.8407 N.2     1  UNL1       -0.0779
     23 O          13.1945    8.2012    1.5142 O.2     1  UNL1       -0.3964
     24 C          14.2581    9.0681    1.9132 C.3     1  UNL1        0.1072
     25 C          13.1915    4.9977   -0.3762 C.ar    1  UNL1        0.1067
     26 C          14.5247    4.7593   -0.5784 C.ar    1  UNL1        0.0067
     27 S          14.4509    3.2790   -1.5783 S.2     1  UNL1       -0.0604
     28 C          12.6710    3.1268   -1.6269 C.ar    1  UNL1        0.1562
     29 N          12.2954    4.1660   -0.9057 N.ar    1  UNL1       -0.2233
     30 N          11.8915    2.1683   -2.2525 N.pl3   1  UNL1       -0.3375
     31 S           6.8004    5.6790   -1.1220 S.3     1  UNL1       -0.1311
     32 C           5.4770    4.4346   -1.2293 C.3     1  UNL1        0.0195
     33 C           5.8546    2.7029    2.2019 C.2     1  UNL1        0.0860
     34 O           6.4444    2.8611    3.2524 O.co2   1  UNL1       -0.5433
     35 C          -1.0940   -1.3474    0.3975 C.3     1  UNL1        0.0201
     36 C          -1.9249   -1.1951   -0.8506 C.2     1  UNL1        0.0466
     37 O          -1.5678   -0.4427   -1.7260 O.co2   1  UNL1       -0.5495
     38 H          -1.4284    2.0939    0.5739 H       1  UNL1        0.0293
     39 H          -1.4935    0.8870    1.8807 H       1  UNL1        0.0293
     40 H          -0.4457    2.3169    2.0412 H       1  UNL1        0.0293
     41 H           3.2152    3.5313   -0.2977 H       1  UNL1        0.0427
     42 H           3.7448    2.9631    1.3038 H       1  UNL1        0.0427
     43 H          10.7440    4.5257    0.0706 H       1  UNL1        0.1499
     44 H          14.9268    8.5355    2.5894 H       1  UNL1        0.0687
     45 H          14.8134    9.3910    1.0326 H       1  UNL1        0.0687
     46 H          13.8453    9.9393    2.4220 H       1  UNL1        0.0687
     47 H          15.3840    5.3130   -0.2301 H       1  UNL1        0.0716
     48 H          12.3126    1.4507   -2.7511 H       1  UNL1        0.1442
     49 H          10.9245    2.2145   -2.1920 H       1  UNL1        0.1442
     50 H           5.7137    3.7337   -2.0297 H       1  UNL1        0.0423
     51 H           4.5380    4.9354   -1.4651 H       1  UNL1        0.0423
     52 H          -0.7780   -2.3856    0.4991 H       1  UNL1        0.0379
     53 H          -1.6873   -1.0615    1.2660 H       1  UNL1        0.0379
     54 OXT         4.8936    1.7631    2.1036 O.co2   1  UNL1       -0.5433
     55 O          -3.0616   -1.8952   -0.9897 O.co2   1  UNL1       -0.5495
@<TRIPOS>UNITY_ATOM_ATTR
54 1
charge -1
55 1
charge -1
@<TRIPOS>BOND
     1     1     2    1
     2     1    38    1
     3     1    39    1
     4     1    40    1
     5     2     6   ar
     6     2     3   ar
     7     3     4   ar
     8     3    35    1
     9     4     5   ar
    10     5     6   ar
    11     5     7    1
    12     7     8    1
    13     8     9    1
    14     8    41    1
    15     8    42    1
    16     9    32    1
    17     9    10    2
    18    10    11    1
    19    10    33    1
    20    11    16   am
    21    11    12    1
    22    12    13    1
    23    12    14    1
    24    12    31    1
    25    14    15    1
    26    14    16    1
    27    14    18    1
    28    16    17    2
    29    18    19   am
    30    18    43    1
    31    19    20    2
    32    19    21    1
    33    21    22    2
    34    21    25    1
    35    22    23    1
    36    23    24    1
    37    24    44    1
    38    24    45    1
    39    24    46    1
    40    25    29   ar
    41    25    26   ar
    42    26    27   ar
    43    26    47    1
    44    27    28   ar
    45    28    29   ar
    46    28    30    1
    47    30    48    1
    48    30    49    1
    49    31    32    1
    50    32    50    1
    51    32    51    1
    52    33    34   ar
    53    33    54   ar
    54    35    36    1
    55    35    52    1
    56    35    53    1
    57    36    37   ar
    58    36    55   ar
