@<TRIPOS>MOLECULE
ZINC03830570
 22 23 0 0 0
SMALL
GASTEIGER

@<TRIPOS>ATOM
      1 C           0.9355    4.6182   -1.8429 C.3     1  UNL1        0.0786
      2 C           2.0338    4.1278   -0.9027 C.3     1  UNL1        0.1783
      3 H           2.6411    4.9238   -0.4717 H       1  UNL1        0.0957
      4 N           1.0218    3.5702    0.0115 N.am    1  UNL1       -0.2502
      5 C           0.0386    4.0489   -0.7764 C.2     1  UNL1        0.2243
      6 O          -1.1688    4.0275   -0.6638 O.2     1  UNL1       -0.2753
      7 C           1.2786    2.1093    0.0012 C.3     1  UNL1        0.1257
      8 H           1.9049    1.8202    0.8451 H       1  UNL1        0.0645
      9 C           2.0170    1.9141   -1.3188 C.2     1  UNL1        0.1246
     10 C           1.9186    0.9124   -2.1682 C.2     1  UNL1       -0.0190
     11 C           2.7441    0.9096   -3.4290 C.3     1  UNL1        0.0658
     12 O           3.3202   -0.3843   -3.6183 O.3     1  UNL1       -0.3909
     13 O           2.8071    3.0308   -1.4117 O.2     1  UNL1       -0.4725
     14 C          -0.0161    1.3381    0.0094 C.2     1  UNL1        0.0698
     15 O          -1.0706    1.9279    0.0176 O.co2   1  UNL1       -0.5474
     16 H           0.8814    5.7021   -1.9443 H       1  UNL1        0.0412
     17 H           0.8916    4.0916   -2.7962 H       1  UNL1        0.0412
     18 H           1.2462    0.0930   -1.9612 H       1  UNL1        0.0628
     19 H           2.1081    1.1523   -4.2803 H       1  UNL1        0.0602
     20 H           3.5379    1.6520   -3.3452 H       1  UNL1        0.0602
     21 H           3.8661   -0.4594   -4.4129 H       1  UNL1        0.2098
     22 O           0.0021   -0.0041    0.0020 O.co2   1  UNL1       -0.5474
@<TRIPOS>UNITY_ATOM_ATTR
22 1
charge -1
@<TRIPOS>BOND
     1     1     5    1
     2     1     2    1
     3     1    16    1
     4     1    17    1
     5     2     3    1
     6     2    13    1
     7     2     4    1
     8     4     5   am
     9     4     7    1
    10     5     6    2
    11     7     8    1
    12     7     9    1
    13     7    14    1
    14     9    10    2
    15     9    13    1
    16    10    11    1
    17    10    18    1
    18    11    12    1
    19    11    19    1
    20    11    20    1
    21    12    21    1
    22    14    15   ar
    23    14    22   ar
