@<TRIPOS>MOLECULE
ZINC00000866
 42 43 0 0 0
SMALL
GASTEIGER

@<TRIPOS>ATOM
      1 C           4.6222   -5.9264   -0.8081 C.3     1  UNL1       -0.0014
      2 C           5.4357   -4.7427   -1.2644 C.2     1  UNL1        0.1601
      3 O           6.2210   -4.8637   -2.1803 O.2     1  UNL1       -0.2924
      4 C           5.2770   -3.4401   -0.5983 C.ar    1  UNL1        0.0172
      5 C           6.0301   -2.3392   -1.0189 C.ar    1  UNL1       -0.0494
      6 C           5.8753   -1.1219   -0.3900 C.ar    1  UNL1       -0.0344
      7 C           4.9773   -0.9877    0.6545 C.ar    1  UNL1        0.1087
      8 C           4.2321   -2.0737    1.0800 C.ar    1  UNL1       -0.0344
      9 C           4.3720   -3.2965    0.4582 C.ar    1  UNL1       -0.0494
     10 S           4.7868    0.5721    1.4516 S.O2    1  UNL1        0.0756
     11 O           5.9935    1.2899    1.2330 O.2     1  UNL1       -0.1499
     12 O           4.2850    0.3042    2.7537 O.2     1  UNL1       -0.1499
     13 N           3.5956    1.3921    0.6447 N.am    1  UNL1       -0.1693
     14 C           2.3312    0.9256    0.6543 C.2     1  UNL1        0.3191
     15 O           2.0651   -0.0973    1.2553 O.2     1  UNL1       -0.2512
     16 N           1.3617    1.5929   -0.0024 N.am    1  UNL1       -0.2953
     17 C          -0.0127    1.0858    0.0080 C.3     1  UNL1        0.0246
     18 C          -0.7288    1.5792    1.2668 C.3     1  UNL1       -0.0345
     19 C          -2.1642    1.0497    1.2777 C.3     1  UNL1       -0.0514
     20 C          -2.9042    1.5565    0.0381 C.3     1  UNL1       -0.0529
     21 C          -2.1881    1.0631   -1.2207 C.3     1  UNL1       -0.0514
     22 C          -0.7527    1.5927   -1.2315 C.3     1  UNL1       -0.0345
     23 H           4.0310   -5.6521   -0.0497 H       1  UNL1        0.0309
     24 H           4.0095   -6.2865   -1.6345 H       1  UNL1        0.0309
     25 H           5.2910   -6.7215   -0.4783 H       1  UNL1        0.0309
     26 H           6.7308   -2.4422   -1.8343 H       1  UNL1        0.0625
     27 H           6.4562   -0.2708   -0.7136 H       1  UNL1        0.0637
     28 H           3.5366   -1.9622    1.8986 H       1  UNL1        0.0637
     29 H           3.7866   -4.1419    0.7884 H       1  UNL1        0.0625
     30 H           3.8079    2.2081    0.1652 H       1  UNL1        0.1781
     31 H           1.5740    2.4089   -0.4819 H       1  UNL1        0.1506
     32 H           0.0021   -0.0041    0.0020 H       1  UNL1        0.0499
     33 H          -0.2017    1.2182    2.1499 H       1  UNL1        0.0283
     34 H          -0.7436    2.6691    1.2728 H       1  UNL1        0.0283
     35 H          -2.6744    1.4012    2.1745 H       1  UNL1        0.0266
     36 H          -2.1494   -0.0402    1.2717 H       1  UNL1        0.0266
     37 H          -2.9190    2.6464    0.0441 H       1  UNL1        0.0265
     38 H          -3.9268    1.1792    0.0459 H       1  UNL1        0.0265
     39 H          -2.7153    1.4241   -2.1037 H       1  UNL1        0.0266
     40 H          -2.1733   -0.0268   -1.2266 H       1  UNL1        0.0266
     41 H          -0.7675    2.6825   -1.2255 H       1  UNL1        0.0283
     42 H          -0.2425    1.2411   -2.1283 H       1  UNL1        0.0283
@<TRIPOS>BOND
     1     1     2    1
     2     1    23    1
     3     1    24    1
     4     1    25    1
     5     2     3    2
     6     2     4    1
     7     4     9   ar
     8     4     5   ar
     9     5     6   ar
    10     5    26    1
    11     6     7   ar
    12     6    27    1
    13     7     8   ar
    14     7    10    1
    15     8     9   ar
    16     8    28    1
    17     9    29    1
    18    10    11    2
    19    10    12    2
    20    10    13    1
    21    13    14   am
    22    13    30    1
    23    14    15    2
    24    14    16   am
    25    16    17    1
    26    16    31    1
    27    17    22    1
    28    17    18    1
    29    17    32    1
    30    18    19    1
    31    18    33    1
    32    18    34    1
    33    19    20    1
    34    19    35    1
    35    19    36    1
    36    20    21    1
    37    20    37    1
    38    20    38    1
    39    21    22    1
    40    21    39    1
    41    21    40    1
    42    22    41    1
    43    22    42    1
