@<TRIPOS>MOLECULE
ZINC11616267
 62 65 0 0 0
SMALL
GASTEIGER

@<TRIPOS>ATOM
      1 C          -0.7171    0.5629   -2.2116 C.3     1  UNL1       -0.0594
      2 C          -0.6821    1.6098   -1.1003 C.3     1  UNL1       -0.0071
      3 H          -0.1606    2.5039   -1.4505 H       1  UNL1        0.0330
      4 C           0.0297    1.0507    0.1624 C.3     1  UNL1       -0.0436
      5 C          -0.8192    1.6433    1.2983 C.3     1  UNL1       -0.0263
      6 H          -0.6118    2.7414    1.2955 H       1  UNL1        0.0311
      7 C          -0.5800    1.1519    2.6849 C.3     1  UNL1        0.0003
      8 H           0.0852    1.8850    3.1926 H       1  UNL1        0.0336
      9 C           0.0816   -0.2161    2.8174 C.3     1  UNL1       -0.0432
     10 C           0.6122   -0.3267    4.2487 C.3     1  UNL1       -0.0301
     11 C          -0.1960    0.4715    5.2376 C.2     1  UNL1       -0.0532
     12 C           0.3451    0.6414    6.4568 C.2     1  UNL1       -0.0148
     13 C          -0.3668    1.4562    7.4637 C.2     1  UNL1        0.1787
     14 O          -0.0818    1.3762    8.6553 O.2     1  UNL1       -0.2879
     15 C          -1.4105    2.3922    6.9898 C.2     1  UNL1       -0.0180
     16 C          -1.9202    2.2225    5.7583 C.2     1  UNL1       -0.0674
     17 C          -1.5528    1.0237    4.9575 C.3     1  UNL1        0.0443
     18 C          -1.8833    1.1062    3.4897 C.3     1  UNL1        0.1526
     19 C          -2.7744    2.2640    3.0790 C.3     1  UNL1        0.0910
     20 H          -3.6251    2.3358    3.7637 H       1  UNL1        0.0626
     21 C          -3.3050    2.0203    1.6514 C.3     1  UNL1       -0.0151
     22 C          -2.2459    1.4221    0.7669 C.3     1  UNL1        0.0096
     23 C          -2.1210    1.9886   -0.6600 C.3     1  UNL1        0.1351
     24 C          -2.2864    3.4805   -0.6904 C.2     1  UNL1        0.2024
     25 O          -2.0090    4.1387    0.2833 O.2     1  UNL1       -0.2907
     26 C          -2.7987    4.1565   -1.9360 C.3     1  UNL1        0.1530
     27 O          -2.8688    5.5899   -1.7148 O.3     1  UNL1       -0.4570
     28 C          -3.3091    6.3431   -2.7349 C.2     1  UNL1        0.3043
     29 O          -3.6254    5.8220   -3.7781 O.2     1  UNL1       -0.2512
     30 C          -3.4088    7.8387   -2.5790 C.3     1  UNL1        0.0332
     31 O          -3.0792    1.3570   -1.5104 O.3     1  UNL1       -0.3801
     32 C          -2.5444   -0.0794    0.5817 C.3     1  UNL1       -0.0562
     33 O          -2.0459    3.4946    3.1139 O.3     1  UNL1       -0.3886
     34 F          -2.5477   -0.0884    3.2133 F       1  UNL1       -0.2377
     35 C          -2.5036   -0.0724    5.4658 C.3     1  UNL1       -0.0493
     36 H          -1.2353   -0.3275   -1.8558 H       1  UNL1        0.0233
     37 H          -1.2428    0.9682   -3.0762 H       1  UNL1        0.0233
     38 H           0.3020    0.3009   -2.4961 H       1  UNL1        0.0233
     39 H           0.0355   -0.0316    0.1715 H       1  UNL1        0.0272
     40 H           1.0520    1.4349    0.2175 H       1  UNL1        0.0272
     41 H          -0.6419   -1.0097    2.6322 H       1  UNL1        0.0272
     42 H           0.9082   -0.3050    2.1104 H       1  UNL1        0.0272
     43 H           0.6038   -1.3737    4.5511 H       1  UNL1        0.0310
     44 H           1.6417    0.0366    4.2701 H       1  UNL1        0.0310
     45 H           1.3086    0.1793    6.6967 H       1  UNL1        0.0656
     46 H          -1.7243    3.2364    7.6076 H       1  UNL1        0.0653
     47 H          -2.6086    2.9698    5.3627 H       1  UNL1        0.0583
     48 H          -3.7100    2.9505    1.2579 H       1  UNL1        0.0297
     49 H          -4.1533    1.3144    1.7176 H       1  UNL1        0.0297
     50 H          -2.1787    3.9666   -2.6973 H       1  UNL1        0.0779
     51 H          -3.7924    3.7765   -2.1731 H       1  UNL1        0.0779
     52 H          -3.0829    8.1222   -1.5782 H       1  UNL1        0.0342
     53 H          -2.7731    8.3243   -3.3193 H       1  UNL1        0.0342
     54 H          -4.4425    8.1513   -2.7266 H       1  UNL1        0.0342
     55 H          -3.0137    1.6185   -2.4390 H       1  UNL1        0.2108
     56 H          -1.8104   -0.5149   -0.0963 H       1  UNL1        0.0236
     57 H          -2.4906   -0.5823    1.5472 H       1  UNL1        0.0236
     58 H          -3.5434   -0.2023    0.1632 H       1  UNL1        0.0236
     59 H          -2.5702    4.2692    2.8686 H       1  UNL1        0.2099
     60 H          -2.2996   -1.0039    4.9377 H       1  UNL1        0.0242
     61 H          -2.3499   -0.2197    6.5348 H       1  UNL1        0.0242
     62 H          -3.5354    0.2292    5.2852 H       1  UNL1        0.0242
@<TRIPOS>BOND
     1     1     2    1
     2     1    36    1
     3     1    37    1
     4     1    38    1
     5     2     3    1
     6     2    23    1
     7     2     4    1
     8     4     5    1
     9     4    39    1
    10     4    40    1
    11     5     6    1
    12     5    22    1
    13     5     7    1
    14     7     8    1
    15     7    18    1
    16     7     9    1
    17     9    10    1
    18     9    41    1
    19     9    42    1
    20    10    11    1
    21    10    43    1
    22    10    44    1
    23    11    17    1
    24    11    12    2
    25    12    13    1
    26    12    45    1
    27    13    14    2
    28    13    15    1
    29    15    16    2
    30    15    46    1
    31    16    17    1
    32    16    47    1
    33    17    18    1
    34    17    35    1
    35    18    19    1
    36    18    34    1
    37    19    20    1
    38    19    21    1
    39    19    33    1
    40    21    22    1
    41    21    48    1
    42    21    49    1
    43    22    23    1
    44    22    32    1
    45    23    24    1
    46    23    31    1
    47    24    25    2
    48    24    26    1
    49    26    27    1
    50    26    50    1
    51    26    51    1
    52    27    28    1
    53    28    29    2
    54    28    30    1
    55    30    52    1
    56    30    53    1
    57    30    54    1
    58    31    55    1
    59    32    56    1
    60    32    57    1
    61    32    58    1
    62    33    59    1
    63    35    60    1
    64    35    61    1
    65    35    62    1
