@<TRIPOS>MOLECULE
ZINC03830788
 45 48 0 0 0
SMALL
GASTEIGER

@<TRIPOS>ATOM
      1 C          -0.8357    3.9097   -0.4269 C.3     1  UNL1       -0.0526
      2 C          -1.7037    2.6697   -0.6497 C.3     1  UNL1        0.0293
      3 C          -2.9049    3.0180   -1.4915 C.3     1  UNL1       -0.0401
      4 C          -4.1220    3.3400   -0.6066 C.3     1  UNL1       -0.0450
      5 C          -3.6576    3.9498    0.7016 C.3     1  UNL1       -0.0124
      6 H          -2.9664    4.7621    0.4962 H       1  UNL1        0.0352
      7 C          -4.7510    4.5273    1.5549 C.ar    1  UNL1       -0.0406
      8 C          -5.9175    4.9907    0.9733 C.ar    1  UNL1       -0.0545
      9 C          -6.9224    5.5317    1.7533 C.ar    1  UNL1       -0.0168
     10 C          -6.7574    5.5951    3.1279 C.ar    1  UNL1        0.1550
     11 C          -5.5972    5.1180    3.7101 C.ar    1  UNL1       -0.0137
     12 C          -4.5775    4.5878    2.9285 C.ar    1  UNL1       -0.0404
     13 C          -3.3450    4.0995    3.6429 C.3     1  UNL1       -0.0270
     14 C          -2.2542    3.6032    2.6892 C.3     1  UNL1       -0.0454
     15 C          -2.9453    2.8777    1.5409 C.3     1  UNL1       -0.0302
     16 H          -3.7419    2.2488    1.9880 H       1  UNL1        0.0310
     17 C          -2.0971    2.0024    0.6830 C.3     1  UNL1       -0.0252
     18 H          -2.6697    1.0744    0.4592 H       1  UNL1        0.0313
     19 C          -0.7308    1.5585    1.2274 C.3     1  UNL1       -0.0424
     20 C           0.0082    1.0842   -0.0564 C.3     1  UNL1        0.0067
     21 C          -0.7929    1.6119   -1.2404 C.2     1  UNL1        0.1395
     22 O          -0.7394    1.2767   -2.3941 O.2     1  UNL1       -0.2968
     23 O          -7.7291    6.1357    3.9052 O.3     1  UNL1       -0.3605
     24 S          -8.7653    5.1313    4.3888 S.3     1  UNL1        0.0425
     25 O          -9.8047    5.8828    5.0006 O.2     1  UNL1       -0.3360
     26 O          -9.0040    4.2413    3.3071 O.2     1  UNL1       -0.3360
     27 H          -0.3278    4.1693   -1.3557 H       1  UNL1        0.0239
     28 H          -1.4651    4.7420   -0.1120 H       1  UNL1        0.0239
     29 H          -0.0957    3.7011    0.3458 H       1  UNL1        0.0239
     30 H          -2.6788    3.8808   -2.1273 H       1  UNL1        0.0275
     31 H          -3.1516    2.1673   -2.1448 H       1  UNL1        0.0275
     32 H          -4.6764    2.4173   -0.3922 H       1  UNL1        0.0271
     33 H          -4.7886    4.0294   -1.1257 H       1  UNL1        0.0271
     34 H          -6.0588    4.9402   -0.0973 H       1  UNL1        0.0622
     35 H          -7.8259    5.9089    1.2934 H       1  UNL1        0.0655
     36 H          -5.4796    5.1430    4.7851 H       1  UNL1        0.0658
     37 H          -2.9398    4.9134    4.2485 H       1  UNL1        0.0313
     38 H          -3.6320    3.2740    4.3020 H       1  UNL1        0.0313
     39 H          -1.5989    2.9158    3.2184 H       1  UNL1        0.0271
     40 H          -1.6751    4.4453    2.3135 H       1  UNL1        0.0271
     41 H          -0.8514    0.7164    1.9169 H       1  UNL1        0.0272
     42 H          -0.2032    2.3710    1.7162 H       1  UNL1        0.0272
     43 H           0.0476    0.0851   -0.0684 H       1  UNL1        0.0342
     44 H           1.0232    1.4797   -0.0810 H       1  UNL1        0.0342
     45 O          -8.1148    4.3098    5.4927 O.co2   1  UNL1       -0.2589
@<TRIPOS>UNITY_ATOM_ATTR
45 1
charge -1
@<TRIPOS>BOND
     1     1     2    1
     2     1    27    1
     3     1    28    1
     4     1    29    1
     5     2    17    1
     6     2    21    1
     7     2     3    1
     8     3     4    1
     9     3    30    1
    10     3    31    1
    11     4     5    1
    12     4    32    1
    13     4    33    1
    14     5     6    1
    15     5    15    1
    16     5     7    1
    17     7    12   ar
    18     7     8   ar
    19     8     9   ar
    20     8    34    1
    21     9    10   ar
    22     9    35    1
    23    10    11   ar
    24    10    23    1
    25    11    12   ar
    26    11    36    1
    27    12    13    1
    28    13    14    1
    29    13    37    1
    30    13    38    1
    31    14    15    1
    32    14    39    1
    33    14    40    1
    34    15    16    1
    35    15    17    1
    36    17    18    1
    37    17    19    1
    38    19    20    1
    39    19    41    1
    40    19    42    1
    41    20    21    1
    42    20    43    1
    43    20    44    1
    44    21    22    2
    45    23    24    1
    46    24    25    2
    47    24    26    2
    48    24    45    1
