@<TRIPOS>MOLECULE
ZINC15848225
 46 48 0 0 0
SMALL
GASTEIGER

@<TRIPOS>ATOM
      1 C           0.9702    9.0604   -7.3165 C.3     1  UNL1       -0.0465
      2 C           2.0004    8.6597   -6.2922 C.2     1  UNL1       -0.0868
      3 C           1.7188    8.7525   -4.9909 C.2     1  UNL1       -0.0602
      4 C           2.7183    8.3637   -3.9971 C.2     1  UNL1       -0.0146
      5 CA          2.3933    8.5955   -2.7130 C.2     1  UNL1        0.0638
      6 N           3.2500    8.1836   -1.6767 N.am    1  UNL1       -0.2531
      7 C           4.7074    7.8785   -1.8112 C.3     1  UNL1        0.1041
      8 H           5.3899    8.7281   -1.7902 H       1  UNL1        0.0644
      9 CA          4.4873    7.1672   -0.4859 C.3     1  UNL1        0.1285
     10 HA          5.1805    7.4799    0.2950 H       1  UNL1        0.0622
     11 C           3.1337    7.8348   -0.3863 C.2     1  UNL1        0.2438
     12 O           2.3026    7.9886    0.4838 O.2     1  UNL1       -0.2731
     13 N           4.4065    5.7103   -0.6168 N.am    1  UNL1       -0.2968
     14 C           4.6931    4.9220    0.4381 C.2     1  UNL1        0.2665
     15 O           5.0180    5.4187    1.4957 O.2     1  UNL1       -0.2692
     16 CA          4.6100    3.4233    0.3034 C.3     1  UNL1        0.0789
     17 HA          5.0051    3.1233   -0.6671 H       1  UNL1        0.1002
     18 C           3.1717    2.9878    0.4166 C.ar    1  UNL1        0.0093
     19 C           2.4452    2.7021   -0.7246 C.ar    1  UNL1       -0.0493
     20 C           1.1267    2.3027   -0.6234 C.ar    1  UNL1       -0.0197
     21 C           0.5315    2.1883    0.6245 C.ar    1  UNL1        0.1169
     22 C           1.2609    2.4811    1.7677 C.ar    1  UNL1       -0.0197
     23 C           2.5807    2.8751    1.6615 C.ar    1  UNL1       -0.0493
     24 O          -0.7655    1.7955    0.7266 O.3     1  UNL1       -0.5068
     25 S           4.8547    6.7916   -3.2689 S.3     1  UNL1       -0.1308
     26 C           3.9742    7.7577   -4.5343 C.3     1  UNL1        0.0224
     27 C           1.1376    9.2826   -2.3913 C.2     1  UNL1        0.0862
     28 O           1.1242   10.4904   -2.2502 O.co2   1  UNL1       -0.5433
     29 H           0.7089   10.1095   -7.1779 H       1  UNL1        0.0272
     30 H           1.3778    8.9167   -8.3172 H       1  UNL1        0.0272
     31 H           0.0789    8.4448   -7.1954 H       1  UNL1        0.0272
     32 H           2.9666    8.2974   -6.6112 H       1  UNL1        0.0569
     33 H           0.7527    9.1148   -4.6719 H       1  UNL1        0.0618
     34 H           4.1467    5.3131   -1.4628 H       1  UNL1        0.1497
     35 H           2.9091    2.7909   -1.6958 H       1  UNL1        0.0623
     36 H           0.5595    2.0800   -1.5151 H       1  UNL1        0.0654
     37 H           0.7985    2.3972    2.7401 H       1  UNL1        0.0654
     38 H           3.1503    3.0988    2.5514 H       1  UNL1        0.0623
     39 H          -0.8818    0.8386    0.8025 H       1  UNL1        0.2921
     40 H1          6.3776    3.0163    1.2771 H       1  UNL1        0.2005
     41 H2          5.0515    3.0541    2.2800 H       1  UNL1        0.2005
     42 H           3.7237    7.1038   -5.3696 H       1  UNL1        0.0426
     43 H           4.6276    8.5535   -4.8918 H       1  UNL1        0.0426
     44 N           5.3938    2.7670    1.3646 N.4     1  UNL1        0.2307
     45 H3          5.2970    1.7487    1.2750 H       1  UNL1        0.2005
     46 OXT        -0.0022    8.5747   -2.2520 O.co2   1  UNL1       -0.5433
@<TRIPOS>UNITY_ATOM_ATTR
44 1
charge 1
46 1
charge -1
@<TRIPOS>BOND
     1     1     2    1
     2     1    29    1
     3     1    30    1
     4     1    31    1
     5     2     3    2
     6     2    32    1
     7     3     4    1
     8     3    33    1
     9     4    26    1
    10     4     5    2
    11     5     6    1
    12     5    27    1
    13     6    11   am
    14     6     7    1
    15     7     8    1
    16     7     9    1
    17     7    25    1
    18     9    10    1
    19     9    11    1
    20     9    13    1
    21    11    12    2
    22    13    14   am
    23    13    34    1
    24    14    15    2
    25    14    16    1
    26    16    17    1
    27    16    18    1
    28    16    44    1
    29    18    23   ar
    30    18    19   ar
    31    19    20   ar
    32    19    35    1
    33    20    21   ar
    34    20    36    1
    35    21    22   ar
    36    21    24    1
    37    22    23   ar
    38    22    37    1
    39    23    38    1
    40    24    39    1
    41    25    26    1
    42    26    42    1
    43    26    43    1
    44    27    28   ar
    45    27    46   ar
    46    40    44    1
    47    41    44    1
    48    44    45    1
