@<TRIPOS>MOLECULE
ZINC03831625
 83 88 0 0 0
SMALL
GASTEIGER

@<TRIPOS>ATOM
      1 C          -4.3695    2.2647   -0.5070 C.3     1  UNL1       -0.0359
      2 C          -3.6209    3.5332   -0.0931 C.3     1  UNL1        0.0900
      3 H          -3.6842    4.2702   -0.8936 H       1  UNL1        0.0622
      4 C          -4.2511    4.1058    1.1792 C.3     1  UNL1        0.1234
      5 H          -3.7452    5.0318    1.4524 H       1  UNL1        0.0676
      6 C          -4.1048    3.0882    2.3147 C.3     1  UNL1        0.0093
      7 H          -4.6531    2.1803    2.0637 H       1  UNL1        0.0878
      8 C          -2.6210    2.7561    2.4998 C.3     1  UNL1        0.0439
      9 C          -2.0537    2.2356    1.1766 C.3     1  UNL1        0.1655
     10 H          -2.5664    1.3148    0.8984 H       1  UNL1        0.0912
     11 O          -2.2498    3.2172    0.1568 O.3     1  UNL1       -0.3454
     12 O          -0.6564    1.9764    1.3262 O.3     1  UNL1       -0.3431
     13 C          -0.0763    1.2660    0.2303 C.3     1  UNL1        0.0933
     14 H          -0.5666    1.5709   -0.6943 H       1  UNL1        0.0649
     15 C          -0.2810   -0.2329    0.4377 C.3     1  UNL1        0.0124
     16 C           0.5304   -0.9818   -0.6264 C.3     1  UNL1        0.1117
     17 C           2.0137   -0.8104   -0.3069 C.3     1  UNL1        0.0107
     18 C           2.3491    0.6450   -0.1040 C.ar    1  UNL1        0.0070
     19 C           1.3919    1.5959    0.1460 C.ar    1  UNL1        0.0302
     20 C           1.7634    2.9340    0.3329 C.ar    1  UNL1        0.1345
     21 C           3.1021    3.3137    0.2643 C.ar    1  UNL1        0.0784
     22 C           4.0849    2.3375    0.0041 C.ar    1  UNL1        0.0782
     23 C           3.6995    1.0106   -0.1779 C.ar    1  UNL1        0.1322
     24 O           4.6394    0.0656   -0.4282 O.3     1  UNL1       -0.5057
     25 C           5.5047    2.7218   -0.0726 C.2     1  UNL1        0.1982
     26 O           6.3525    1.8798   -0.2976 O.2     1  UNL1       -0.2865
     27 C           5.8965    4.1330    0.1242 C.ar    1  UNL1        0.0367
     28 C           7.2350    4.5052    0.0546 C.ar    1  UNL1       -0.0500
     29 C           7.5973    5.8294    0.2397 C.ar    1  UNL1       -0.0576
     30 C           6.6392    6.7895    0.4948 C.ar    1  UNL1       -0.0192
     31 C           5.2946    6.4392    0.5690 C.ar    1  UNL1        0.1316
     32 C           4.9141    5.1065    0.3840 C.ar    1  UNL1        0.0748
     33 C           3.4933    4.7208    0.4605 C.2     1  UNL1        0.2016
     34 O           2.6451    5.5629    0.6857 O.2     1  UNL1       -0.2864
     35 O           4.3571    7.3865    0.8192 O.3     1  UNL1       -0.4944
     36 C           4.8203    8.7266    0.9973 C.3     1  UNL1        0.0788
     37 O           0.8117    3.8674    0.5828 O.3     1  UNL1       -0.5057
     38 C           0.1714   -2.4452   -0.6021 C.2     1  UNL1        0.0655
     39 N          -0.6987   -2.8771    0.2317 N.2     1  UNL1       -0.1863
     40 N          -1.0324   -4.2376    0.2542 N.am    1  UNL1       -0.2029
     41 C          -1.9485   -4.6923    1.1321 C.2     1  UNL1        0.2633
     42 O          -2.4852   -3.9218    1.9044 O.2     1  UNL1       -0.2685
     43 C          -2.3005   -6.1275    1.1559 C.ar    1  UNL1        0.0384
     44 C          -1.6904   -7.0139    0.2666 C.ar    1  UNL1       -0.0496
     45 C          -2.0197   -8.3531    0.2976 C.ar    1  UNL1       -0.0610
     46 C          -2.9609   -8.8165    1.1998 C.ar    1  UNL1       -0.0617
     47 C          -3.5733   -7.9425    2.0804 C.ar    1  UNL1       -0.0610
     48 C          -3.2489   -6.6017    2.0638 C.ar    1  UNL1       -0.0496
     49 C           0.8367   -3.4002   -1.5594 C.3     1  UNL1       -0.0220
     50 O           0.2497   -0.4377   -1.9175 O.3     1  UNL1       -0.3823
     51 O          -5.6368    4.3686    0.9491 O.3     1  UNL1       -0.3836
     52 H          -5.4155    2.5056   -0.6965 H       1  UNL1        0.0255
     53 H          -3.9207    1.8571   -1.4128 H       1  UNL1        0.0255
     54 H          -4.3057    1.5276    0.2935 H       1  UNL1        0.0255
     55 H          -2.5121    1.9913    3.2688 H       1  UNL1        0.0370
     56 H          -2.0812    3.6544    2.7992 H       1  UNL1        0.0370
     57 H           0.0656   -0.5170    1.4313 H       1  UNL1        0.0325
     58 H          -1.3380   -0.4773    0.3330 H       1  UNL1        0.0325
     59 H           2.2519   -1.3639    0.6014 H       1  UNL1        0.0346
     60 H           2.6068   -1.2039   -1.1325 H       1  UNL1        0.0346
     61 H           4.8256   -0.0647   -1.3682 H       1  UNL1        0.2922
     62 H           7.9922    3.7613   -0.1442 H       1  UNL1        0.0625
     63 H           8.6380    6.1127    0.1842 H       1  UNL1        0.0619
     64 H           6.9348    7.8184    0.6374 H       1  UNL1        0.0654
     65 H           5.5075    8.7641    1.8426 H       1  UNL1        0.0660
     66 H           5.3358    9.0558    0.0951 H       1  UNL1        0.0660
     67 H           3.9709    9.3820    1.1901 H       1  UNL1        0.0660
     68 H           0.4325    4.2652   -0.2129 H       1  UNL1        0.2922
     69 H          -0.6042   -4.8523   -0.3619 H       1  UNL1        0.1776
     70 H          -0.9591   -6.6526   -0.4413 H       1  UNL1        0.0625
     71 H          -1.5449   -9.0408   -0.3865 H       1  UNL1        0.0618
     72 H          -3.2185   -9.8652    1.2169 H       1  UNL1        0.0618
     73 H          -4.3066   -8.3108    2.7826 H       1  UNL1        0.0618
     74 H          -3.7274   -5.9206    2.7519 H       1  UNL1        0.0625
     75 H           1.7412   -3.8016   -1.1023 H       1  UNL1        0.0291
     76 H           0.1534   -4.2172   -1.7912 H       1  UNL1        0.0291
     77 H           1.0967   -2.8726   -2.4770 H       1  UNL1        0.0291
     78 H           0.7311   -0.8666   -2.6382 H       1  UNL1        0.2107
     79 H          -4.5478    3.0055    4.3235 H       1  UNL1        0.1998
     80 H          -4.1929    4.5354    3.7764 H       1  UNL1        0.1998
     81 H          -5.8040    5.0060    0.2413 H       1  UNL1        0.2102
     82 N          -4.6641    3.6605    3.5521 N.4     1  UNL1        0.2228
     83 H          -5.6651    3.8443    3.4166 H       1  UNL1        0.1998
@<TRIPOS>UNITY_ATOM_ATTR
82 1
charge 1
@<TRIPOS>BOND
     1     1     2    1
     2     1    52    1
     3     1    53    1
     4     1    54    1
     5     2     3    1
     6     2    11    1
     7     2     4    1
     8     4     5    1
     9     4     6    1
    10     4    51    1
    11     6     7    1
    12     6     8    1
    13     6    82    1
    14     8     9    1
    15     8    55    1
    16     8    56    1
    17     9    10    1
    18     9    11    1
    19     9    12    1
    20    12    13    1
    21    13    14    1
    22    13    19    1
    23    13    15    1
    24    15    16    1
    25    15    57    1
    26    15    58    1
    27    16    17    1
    28    16    38    1
    29    16    50    1
    30    17    18    1
    31    17    59    1
    32    17    60    1
    33    18    23   ar
    34    18    19   ar
    35    19    20   ar
    36    20    21   ar
    37    20    37    1
    38    21    33    1
    39    21    22   ar
    40    22    23   ar
    41    22    25    1
    42    23    24    1
    43    24    61    1
    44    25    26    2
    45    25    27    1
    46    27    32   ar
    47    27    28   ar
    48    28    29   ar
    49    28    62    1
    50    29    30   ar
    51    29    63    1
    52    30    31   ar
    53    30    64    1
    54    31    32   ar
    55    31    35    1
    56    32    33    1
    57    33    34    2
    58    35    36    1
    59    36    65    1
    60    36    66    1
    61    36    67    1
    62    37    68    1
    63    38    39    2
    64    38    49    1
    65    39    40    1
    66    40    41   am
    67    40    69    1
    68    41    42    2
    69    41    43    1
    70    43    48   ar
    71    43    44   ar
    72    44    45   ar
    73    44    70    1
    74    45    46   ar
    75    45    71    1
    76    46    47   ar
    77    46    72    1
    78    47    48   ar
    79    47    73    1
    80    48    74    1
    81    49    75    1
    82    49    76    1
    83    49    77    1
    84    50    78    1
    85    51    81    1
    86    79    82    1
    87    80    82    1
    88    82    83    1
