@<TRIPOS>MOLECULE
ZINC03830587
 52 55 0 0 0
SMALL
GASTEIGER

@<TRIPOS>ATOM
      1 C          -2.3726    0.6341    0.6842 C.3     1  UNL1       -0.0562
      2 C          -1.4847   -0.4453    0.0617 C.3     1  UNL1        0.0094
      3 C          -1.5231   -1.7562    0.8479 C.3     1  UNL1       -0.0178
      4 C          -2.8534   -2.4816    0.6559 C.3     1  UNL1        0.0603
      5 H          -3.6729   -1.8364    0.9723 H       1  UNL1        0.0597
      6 C          -3.0054   -2.8185   -0.8297 C.3     1  UNL1        0.0045
      7 H          -2.1430   -3.3949   -1.1644 H       1  UNL1        0.0343
      8 C          -3.0785   -1.5072   -1.6073 C.3     1  UNL1       -0.0116
      9 H          -3.9030   -0.9336   -1.1839 H       1  UNL1        0.0350
     10 C          -1.8312   -0.6832   -1.4229 C.3     1  UNL1       -0.0257
     11 H          -1.9584    0.2836   -1.9100 H       1  UNL1        0.0313
     12 C          -0.5715   -1.3751   -1.9760 C.3     1  UNL1       -0.0460
     13 C           0.5871   -0.6234   -1.2809 C.3     1  UNL1       -0.0162
     14 C           0.0021   -0.0041    0.0020 C.3     1  UNL1        0.1315
     15 C           0.7433   -0.5178    1.2094 C.2     1  UNL1        0.1902
     16 O           1.3376   -1.5675    1.1515 O.2     1  UNL1       -0.2919
     17 C           0.7429    0.2782    2.4889 C.3     1  UNL1        0.1052
     18 O           1.5081   -0.4114    3.4793 O.3     1  UNL1       -0.3874
     19 O           0.0891    1.4211   -0.0571 O.3     1  UNL1       -0.3804
     20 C          -3.4155   -1.7330   -3.0458 C.2     1  UNL1       -0.0616
     21 C          -4.0066   -2.8359   -3.4919 C.2     1  UNL1        0.0415
     22 C          -4.3686   -3.9077   -2.5533 C.2     1  UNL1       -0.0157
     23 C          -4.7244   -5.1177   -3.0302 C.2     1  UNL1       -0.0096
     24 C          -4.9504   -6.2326   -2.1105 C.2     1  UNL1        0.1790
     25 O          -5.3575   -7.3048   -2.5212 O.2     1  UNL1       -0.2879
     26 C          -4.6757   -6.0314   -0.6769 C.2     1  UNL1       -0.0180
     27 C          -4.3619   -4.8278   -0.2238 C.2     1  UNL1       -0.0698
     28 C          -4.2839   -3.6150   -1.0821 C.3     1  UNL1        0.0185
     29 C          -5.4711   -2.7153   -0.7330 C.3     1  UNL1       -0.0516
     30 CL         -4.3670   -3.0060   -5.1815 Cl      1  UNL1       -0.0835
     31 O          -2.8616   -3.6852    1.4262 O.3     1  UNL1       -0.3914
     32 H          -2.2894    1.5526    0.1032 H       1  UNL1        0.0236
     33 H          -3.4091    0.2967    0.6839 H       1  UNL1        0.0236
     34 H          -2.0519    0.8220    1.7088 H       1  UNL1        0.0236
     35 H          -1.3843   -1.5400    1.9072 H       1  UNL1        0.0297
     36 H          -0.7129   -2.4004    0.5063 H       1  UNL1        0.0297
     37 H          -0.5119   -1.2562   -3.0578 H       1  UNL1        0.0269
     38 H          -0.5624   -2.4305   -1.7037 H       1  UNL1        0.0269
     39 H           0.9682    0.1615   -1.9343 H       1  UNL1        0.0297
     40 H           1.3862   -1.3204   -1.0284 H       1  UNL1        0.0297
     41 H           1.1470    1.1776    2.3221 H       1  UNL1        0.0637
     42 H          -0.2816    0.3998    2.8409 H       1  UNL1        0.0637
     43 H           1.5512    0.0445    4.3310 H       1  UNL1        0.2100
     44 H           0.9940    1.7580   -0.1089 H       1  UNL1        0.2108
     45 H          -3.1503   -0.9703   -3.7631 H       1  UNL1        0.0589
     46 H          -4.8433   -5.2640   -4.0936 H       1  UNL1        0.0659
     47 H          -4.7301   -6.8671    0.0051 H       1  UNL1        0.0653
     48 H          -4.1506   -4.7199    0.8298 H       1  UNL1        0.0582
     49 H          -5.4496   -1.8251   -1.3616 H       1  UNL1        0.0241
     50 H          -6.4009   -3.2581   -0.9035 H       1  UNL1        0.0241
     51 H          -5.4087   -2.4217    0.3149 H       1  UNL1        0.0241
     52 H          -2.7688   -3.5434    2.3783 H       1  UNL1        0.2098
@<TRIPOS>BOND
     1     1     2    1
     2     1    32    1
     3     1    33    1
     4     1    34    1
     5     2    10    1
     6     2    14    1
     7     2     3    1
     8     3     4    1
     9     3    35    1
    10     3    36    1
    11     4     5    1
    12     4     6    1
    13     4    31    1
    14     6     7    1
    15     6    28    1
    16     6     8    1
    17     8     9    1
    18     8    10    1
    19     8    20    1
    20    10    11    1
    21    10    12    1
    22    12    13    1
    23    12    37    1
    24    12    38    1
    25    13    14    1
    26    13    39    1
    27    13    40    1
    28    14    15    1
    29    14    19    1
    30    15    16    2
    31    15    17    1
    32    17    18    1
    33    17    41    1
    34    17    42    1
    35    18    43    1
    36    19    44    1
    37    20    21    2
    38    20    45    1
    39    21    22    1
    40    21    30    1
    41    22    28    1
    42    22    23    2
    43    23    24    1
    44    23    46    1
    45    24    25    2
    46    24    26    1
    47    26    27    2
    48    26    47    1
    49    27    28    1
    50    27    48    1
    51    28    29    1
    52    29    49    1
    53    29    50    1
    54    29    51    1
    55    31    52    1
