@<TRIPOS>MOLECULE
ZINC08101149
 94 97 0 0 0
SMALL
GASTEIGER

@<TRIPOS>ATOM
      1 C           1.4640   -5.6699    8.7198 C.3     1  UNL1       -0.0274
      2 C           1.6897   -4.9013    7.4163 C.3     1  UNL1        0.1040
      3 H           1.1657   -5.4086    6.6062 H       1  UNL1        0.0734
      4 C           3.1876   -4.8678    7.1041 C.3     1  UNL1        0.0026
      5 C           3.3856   -4.9620    5.6138 C.2     1  UNL1       -0.0805
      6 C           4.2547   -4.1719    4.9806 C.2     1  UNL1       -0.0656
      7 C           4.3582   -4.2560    3.5179 C.2     1  UNL1       -0.0621
      8 C           4.9894   -3.2708    2.8377 C.2     1  UNL1       -0.0618
      9 C           4.5194   -2.9124    1.5558 C.2     1  UNL1       -0.0618
     10 C           4.0896   -1.6453    1.3603 C.2     1  UNL1       -0.0620
     11 C           3.3940   -1.2343    0.1442 C.2     1  UNL1       -0.0633
     12 C           2.8090   -0.0349    0.1337 C.2     1  UNL1       -0.0555
     13 C           2.0365    0.4704   -1.0559 C.3     1  UNL1        0.0826
     14 H           1.4275   -0.3347   -1.4670 H       1  UNL1        0.0642
     15 C           1.1289    1.6224   -0.6047 C.3     1  UNL1        0.0043
     16 C          -0.2775    1.0895   -0.3379 C.3     1  UNL1        0.0748
     17 H          -0.2661   -0.0005   -0.3510 H       1  UNL1        0.0605
     18 C          -1.2192    1.6130   -1.4271 C.3     1  UNL1        0.0511
     19 H          -0.9068    1.2223   -2.3955 H       1  UNL1        0.0411
     20 C          -2.6484    1.1582   -1.1318 C.3     1  UNL1        0.0704
     21 H          -2.7014    0.0706   -1.1818 H       1  UNL1        0.0602
     22 C          -3.0520    1.6251    0.2693 C.3     1  UNL1        0.0280
     23 C          -2.0443    1.0972    1.2892 C.3     1  UNL1        0.1723
     24 O          -0.7297    1.5349    0.9408 O.3     1  UNL1       -0.3446
     25 C          -2.4074    1.6179    2.6856 C.3     1  UNL1        0.0274
     26 C          -1.7805    0.7083    3.7446 C.3     1  UNL1        0.0626
     27 H          -1.2708    1.3181    4.4905 H       1  UNL1        0.0596
     28 C          -2.8695   -0.1198    4.4234 C.3     1  UNL1        0.0025
     29 C          -3.0986    0.4083    5.8476 C.3     1  UNL1        0.0915
     30 H          -3.0689    1.4943    5.9543 H       1  UNL1        0.0626
     31 C          -2.5789   -0.4319    7.0188 C.3     1  UNL1        0.1040
     32 H          -2.2321    0.0983    7.9075 H       1  UNL1        0.0667
     33 O          -3.9724   -0.3300    6.7002 O.3     1  UNL1       -0.3638
     34 C          -1.8758   -1.7266    6.7157 C.2     1  UNL1       -0.0464
     35 C          -0.6932   -1.9944    7.2664 C.2     1  UNL1        0.0211
     36 C          -0.0416   -3.2886    7.0207 C.2     1  UNL1        0.3320
     37 O          -0.5942   -4.1207    6.3284 O.2     1  UNL1       -0.2456
     38 O           1.1642   -3.5589    7.5571 O.3     1  UNL1       -0.4582
     39 O          -0.8372   -0.1661    3.1218 O.3     1  UNL1       -0.3915
     40 O          -2.0782   -0.3317    1.3005 O.3     1  UNL1       -0.3643
     41 O          -3.5376    1.7235   -2.0970 O.3     1  UNL1       -0.3909
     42 C          -1.1677    3.1189   -1.4537 C.2     1  UNL1        0.0497
     43 O          -0.4523    3.7126   -0.6820 O.co2   1  UNL1       -0.5494
     44 O           2.9460    0.9399   -2.0531 O.3     1  UNL1       -0.3411
     45 C           3.3399   -0.0584   -2.9967 C.3     1  UNL1        0.1913
     46 H           3.6680   -0.9517   -2.4651 H       1  UNL1        0.0939
     47 C           4.4894    0.4758   -3.8552 C.3     1  UNL1        0.1506
     48 H           5.3515    0.6832   -3.2214 H       1  UNL1        0.0702
     49 C           4.8654   -0.5763   -4.9031 C.3     1  UNL1        0.0359
     50 H           5.2269   -1.4751   -4.4037 H       1  UNL1        0.0904
     51 C           3.6262   -0.9165   -5.7368 C.3     1  UNL1        0.1258
     52 H           3.8705   -1.7044   -6.4493 H       1  UNL1        0.0677
     53 C           2.5103   -1.3971   -4.8054 C.3     1  UNL1        0.0902
     54 H           2.8276   -2.3079   -4.2976 H       1  UNL1        0.0622
     55 O           2.2308   -0.3842   -3.8368 O.3     1  UNL1       -0.3428
     56 C           1.2495   -1.6821   -5.6239 C.3     1  UNL1       -0.0359
     57 O           3.1911    0.2474   -6.4425 O.3     1  UNL1       -0.3835
     58 O           4.0773    1.6767   -4.5110 O.3     1  UNL1       -0.3812
     59 H           1.9956   -5.1728    9.5313 H       1  UNL1        0.0265
     60 H           0.3981   -5.6963    8.9462 H       1  UNL1        0.0265
     61 H           1.8377   -6.6880    8.6107 H       1  UNL1        0.0265
     62 H           3.6799   -5.7097    7.5908 H       1  UNL1        0.0343
     63 H           3.6149   -3.9341    7.4699 H       1  UNL1        0.0343
     64 H           2.8164   -5.6851    5.0417 H       1  UNL1        0.0573
     65 H           4.8711   -3.4832    5.5336 H       1  UNL1        0.0614
     66 H           3.8035   -5.0243    3.0147 H       1  UNL1        0.0617
     67 H           5.8065   -2.7541    3.3009 H       1  UNL1        0.0618
     68 H           4.5132   -3.6233    0.7456 H       1  UNL1        0.0618
     69 H           4.2785   -0.9066    2.1351 H       1  UNL1        0.0617
     70 H           3.3516   -1.8866   -0.7104 H       1  UNL1        0.0615
     71 H           2.8972    0.5915    1.0163 H       1  UNL1        0.0598
     72 H           1.0877    2.3802   -1.3871 H       1  UNL1        0.0319
     73 H           1.5291    2.0641    0.3078 H       1  UNL1        0.0319
     74 H          -4.0447    1.2434    0.5079 H       1  UNL1        0.0342
     75 H          -3.0641    2.7146    0.3004 H       1  UNL1        0.0342
     76 H          -3.4911    1.6194    2.8029 H       1  UNL1        0.0342
     77 H          -2.0268    2.6322    2.8059 H       1  UNL1        0.0342
     78 H          -2.5578   -1.1633    4.4684 H       1  UNL1        0.0316
     79 H          -3.7951   -0.0410    3.8532 H       1  UNL1        0.0316
     80 H          -2.3473   -2.4599    6.0738 H       1  UNL1        0.0601
     81 H          -0.2116   -1.2613    7.8956 H       1  UNL1        0.0686
     82 H          -0.3964   -0.7700    3.7350 H       1  UNL1        0.2098
     83 H          -2.9584   -0.7031    1.4507 H       1  UNL1        0.2128
     84 H          -4.4641    1.4772   -1.9701 H       1  UNL1        0.2098
     85 H           0.9325   -0.7713   -6.1319 H       1  UNL1        0.0255
     86 H           1.4628   -2.4547   -6.3627 H       1  UNL1        0.0255
     87 H           0.4549   -2.0233   -4.9604 H       1  UNL1        0.0255
     88 H           2.4056    0.1057   -6.9884 H       1  UNL1        0.2102
     89 H           6.7451    0.1871   -5.2525 H       1  UNL1        0.1999
     90 H           6.1312   -0.6940   -6.5224 H       1  UNL1        0.1999
     91 H           3.8195    2.3863   -3.9068 H       1  UNL1        0.2103
     92 O          -1.9166    3.8006   -2.3347 O.co2   1  UNL1       -0.5494
     93 N           5.9053   -0.0241   -5.7890 N.4     1  UNL1        0.2246
     94 H           5.5572    0.8402   -6.2204 H       1  UNL1        0.1999
@<TRIPOS>UNITY_ATOM_ATTR
92 1
charge -1
93 1
charge 1
@<TRIPOS>BOND
     1     1     2    1
     2     1    59    1
     3     1    60    1
     4     1    61    1
     5     2     3    1
     6     2    38    1
     7     2     4    1
     8     4     5    1
     9     4    62    1
    10     4    63    1
    11     5     6    2
    12     5    64    1
    13     6     7    1
    14     6    65    1
    15     7     8    2
    16     7    66    1
    17     8     9    1
    18     8    67    1
    19     9    10    2
    20     9    68    1
    21    10    11    1
    22    10    69    1
    23    11    12    2
    24    11    70    1
    25    12    13    1
    26    12    71    1
    27    13    14    1
    28    13    15    1
    29    13    44    1
    30    15    16    1
    31    15    72    1
    32    15    73    1
    33    16    17    1
    34    16    24    1
    35    16    18    1
    36    18    19    1
    37    18    20    1
    38    18    42    1
    39    20    21    1
    40    20    22    1
    41    20    41    1
    42    22    23    1
    43    22    74    1
    44    22    75    1
    45    23    24    1
    46    23    25    1
    47    23    40    1
    48    25    26    1
    49    25    76    1
    50    25    77    1
    51    26    27    1
    52    26    28    1
    53    26    39    1
    54    28    29    1
    55    28    78    1
    56    28    79    1
    57    29    30    1
    58    29    33    1
    59    29    31    1
    60    31    32    1
    61    31    33    1
    62    31    34    1
    63    34    35    2
    64    34    80    1
    65    35    36    1
    66    35    81    1
    67    36    37    2
    68    36    38    1
    69    39    82    1
    70    40    83    1
    71    41    84    1
    72    42    43   ar
    73    42    92   ar
    74    44    45    1
    75    45    46    1
    76    45    55    1
    77    45    47    1
    78    47    48    1
    79    47    49    1
    80    47    58    1
    81    49    50    1
    82    49    51    1
    83    49    93    1
    84    51    52    1
    85    51    53    1
    86    51    57    1
    87    53    54    1
    88    53    55    1
    89    53    56    1
    90    56    85    1
    91    56    86    1
    92    56    87    1
    93    57    88    1
    94    58    91    1
    95    89    93    1
    96    90    93    1
    97    93    94    1
