@<TRIPOS>MOLECULE
ZINC03830909
 50 53 0 0 0
SMALL
GASTEIGER

@<TRIPOS>ATOM
      1 C          -0.2180    6.8380    3.2481 C.3     1  UNL1       -0.0486
      2 C          -0.9432    5.8680    2.3131 C.3     1  UNL1        0.0366
      3 CA         -1.8325    4.8692    3.1042 C.3     1  UNL1        0.0807
      4 HA         -2.5971    4.4693    2.4381 H       1  UNL1        0.0576
      5 N          -1.0467    3.7583    3.6522 N.am    1  UNL1       -0.2761
      6 C           0.1926    3.4232    2.9196 C.3     1  UNL1        0.1007
      7 H           1.1105    3.3297    3.5000 H       1  UNL1        0.0640
      8 S           0.2260    4.6532    1.5539 S.3     1  UNL1       -0.1275
      9 CA         -0.5370    2.1276    2.5824 C.3     1  UNL1        0.1355
     10 HA          0.0110    1.2327    2.8773 H       1  UNL1        0.0626
     11 C          -1.6124    2.5218    3.5643 C.2     1  UNL1        0.2405
     12 O          -2.5715    1.9721    4.0633 O.2     1  UNL1       -0.2734
     13 N          -1.0083    2.0699    1.1965 N.am    1  UNL1       -0.2396
     14 C          -2.2346    2.4439    0.7735 C.2     1  UNL1        0.2734
     15 O          -3.1250    2.8745    1.4754 O.2     1  UNL1       -0.2688
     16 CA         -2.3108    2.2364   -0.7234 C.3     1  UNL1        0.0831
     17 HA         -2.7779    3.0959   -1.2041 H       1  UNL1        0.1004
     18 C          -0.2191    1.5954    0.0532 C.3     1  UNL1        0.0568
     19 C          -0.1867    0.0658    0.0347 C.3     1  UNL1       -0.0008
     20 C           1.2046    2.1505    0.1298 C.3     1  UNL1       -0.0008
     21 C          -3.0772    0.9783   -1.0404 C.ar    1  UNL1        0.0092
     22 C          -2.7580    0.2391   -2.1641 C.ar    1  UNL1       -0.0528
     23 C          -3.4585   -0.9171   -2.4528 C.ar    1  UNL1       -0.0613
     24 C          -4.4839   -1.3295   -1.6226 C.ar    1  UNL1       -0.0617
     25 C          -4.8062   -0.5878   -0.5015 C.ar    1  UNL1       -0.0613
     26 C          -4.1032    0.5663   -0.2107 C.ar    1  UNL1       -0.0528
     27 C          -2.5055    5.6009    4.2369 C.2     1  UNL1        0.0635
     28 O          -2.1018    5.4661    5.3676 O.co2   1  UNL1       -0.5478
     29 C          -1.7467    6.6168    1.2479 C.3     1  UNL1       -0.0486
     30 H           0.5172    7.4085    2.6806 H       1  UNL1        0.0244
     31 H          -0.9408    7.5203    3.6955 H       1  UNL1        0.0244
     32 H           0.2862    6.2762    4.0344 H       1  UNL1        0.0244
     33 H           0.3793   -0.2960    0.8931 H       1  UNL1        0.0305
     34 H          -1.2051   -0.3198    0.0822 H       1  UNL1        0.0305
     35 H           0.2889   -0.2764   -0.8845 H       1  UNL1        0.0305
     36 H           1.7761    1.8051   -0.7316 H       1  UNL1        0.0305
     37 H           1.1702    3.2400    0.1299 H       1  UNL1        0.0305
     38 H           1.6816    1.8020    1.0458 H       1  UNL1        0.0305
     39 H          -1.9594    0.5634   -2.8148 H       1  UNL1        0.0622
     40 H          -3.2069   -1.4964   -3.3289 H       1  UNL1        0.0618
     41 H          -5.0334   -2.2311   -1.8500 H       1  UNL1        0.0618
     42 H          -5.6076   -0.9099    0.1470 H       1  UNL1        0.0618
     43 H          -4.3553    1.1460    0.6650 H       1  UNL1        0.0622
     44 H          -2.3048    5.9013    0.6441 H       1  UNL1        0.0244
     45 H          -2.4411    7.3032    1.7323 H       1  UNL1        0.0244
     46 H          -1.0664    7.1793    0.6084 H       1  UNL1        0.0244
     47 N          -0.9171    2.0961   -1.1199 N.4     1  UNL1        0.2567
     48 H1         -0.5330    3.0050   -1.4036 H       1  UNL1        0.2047
     49 H2         -0.8321    1.4309   -1.8974 H       1  UNL1        0.2047
     50 OXT        -3.5535    6.4023    3.9895 O.co2   1  UNL1       -0.5478
@<TRIPOS>UNITY_ATOM_ATTR
47 1
charge 1
50 1
charge -1
@<TRIPOS>BOND
     1     1     2    1
     2     1    30    1
     3     1    31    1
     4     1    32    1
     5     2     8    1
     6     2     3    1
     7     2    29    1
     8     3     4    1
     9     3     5    1
    10     3    27    1
    11     5    11   am
    12     5     6    1
    13     6     7    1
    14     6     8    1
    15     6     9    1
    16     9    10    1
    17     9    11    1
    18     9    13    1
    19    11    12    2
    20    13    18    1
    21    13    14   am
    22    14    15    2
    23    14    16    1
    24    16    17    1
    25    16    21    1
    26    16    47    1
    27    18    19    1
    28    18    20    1
    29    18    47    1
    30    19    33    1
    31    19    34    1
    32    19    35    1
    33    20    36    1
    34    20    37    1
    35    20    38    1
    36    21    26   ar
    37    21    22   ar
    38    22    23   ar
    39    22    39    1
    40    23    24   ar
    41    23    40    1
    42    24    25   ar
    43    24    41    1
    44    25    26   ar
    45    25    42    1
    46    26    43    1
    47    27    28   ar
    48    27    50   ar
    49    29    44    1
    50    29    45    1
    51    29    46    1
    52    47    48    1
    53    47    49    1
