@<TRIPOS>MOLECULE
ZINC03927870
 35 37 0 0 0
SMALL
GASTEIGER

@<TRIPOS>ATOM
      1 C           1.9153    2.4883    4.3977 C.ar    1  UNL1        0.1004
      2 N           2.5090    2.7579    5.5237 N.ar    1  UNL1       -0.2306
      3 C           1.5934    3.1917    6.4238 C.ar    1  UNL1        0.1475
      4 C           1.6486    3.6146    7.7631 C.ar    1  UNL1        0.1500
      5 N           0.5195    3.9836    8.3584 N.ar    1  UNL1       -0.1852
      6 C          -0.6352    3.9569    7.7132 C.ar    1  UNL1        0.3127
      7 N          -0.7335    3.5680    6.4571 N.ar    1  UNL1       -0.1822
      8 C           0.3451    3.1864    5.7799 C.ar    1  UNL1        0.1703
      9 N           0.5782    2.7331    4.5062 N.ar    1  UNL1       -0.2854
     10 C          -0.4245    2.5513    3.4538 C.3     1  UNL1        0.1667
     11 H          -1.3561    2.1776    3.8787 H       1  UNL1        0.0866
     12 C          -0.6692    3.8821    2.7084 C.3     1  UNL1        0.1285
     13 H          -1.5614    4.3766    3.0925 H       1  UNL1        0.0665
     14 C          -0.8771    3.4560    1.2378 C.3     1  UNL1        0.1135
     15 H          -0.1117    3.8983    0.6002 H       1  UNL1        0.0647
     16 C          -0.7334    1.9182    1.2687 C.3     1  UNL1        0.1131
     17 H          -1.7126    1.4473    1.3565 H       1  UNL1        0.0647
     18 O           0.0650    1.6456    2.4409 O.3     1  UNL1       -0.3456
     19 C          -0.0173    1.4248    0.0099 C.3     1  UNL1        0.0797
     20 O           0.0021   -0.0041    0.0020 O.3     1  UNL1       -0.3646
     21 P           0.6778   -0.8654   -1.1785 P.3     1  UNL1       -0.0150
     22 O           2.0853   -0.4428   -1.3540 O.2     1  UNL1       -0.6377
     23 O          -2.1815    3.8281    0.7883 O.3     1  UNL1       -0.3864
     24 O           0.4671    4.7407    2.8251 O.3     1  UNL1       -0.3847
     25 F          -1.7541    4.3424    8.3647 F       1  UNL1       -0.1610
     26 N           2.8516    3.6463    8.4460 N.pl3   1  UNL1       -0.3412
     27 H           2.4087    2.1247    3.5085 H       1  UNL1        0.1030
     28 H           1.0053    1.8021    0.0021 H       1  UNL1        0.0590
     29 H          -0.5445    1.7859   -0.8732 H       1  UNL1        0.0590
     30 H          -2.3265    4.7834    0.7497 H       1  UNL1        0.2100
     31 H           0.3897    5.5656    2.3264 H       1  UNL1        0.2101
     32 H           3.2433    2.7266    8.4740 H       1  UNL1        0.1438
     33 H           2.8771    3.9401    9.3701 H       1  UNL1        0.1438
     34 O           0.6305   -2.4288   -0.7968 O.co2   1  UNL1       -0.5770
     35 O          -0.1302   -0.6230   -2.5498 O.co2   1  UNL1       -0.5770
@<TRIPOS>UNITY_ATOM_ATTR
34 1
charge -1
35 1
charge -1
@<TRIPOS>BOND
     1     1     9   ar
     2     1     2   ar
     3     1    27    1
     4     2     3   ar
     5     3     8   ar
     6     3     4   ar
     7     4     5   ar
     8     4    26    1
     9     5     6   ar
    10     6     7   ar
    11     6    25    1
    12     7     8   ar
    13     8     9   ar
    14     9    10    1
    15    10    11    1
    16    10    18    1
    17    10    12    1
    18    12    13    1
    19    12    14    1
    20    12    24    1
    21    14    15    1
    22    14    16    1
    23    14    23    1
    24    16    17    1
    25    16    18    1
    26    16    19    1
    27    19    20    1
    28    19    28    1
    29    19    29    1
    30    20    21    1
    31    21    22    2
    32    21    34    1
    33    21    35    1
    34    23    30    1
    35    24    31    1
    36    26    32    1
    37    26    33    1
