@<TRIPOS>MOLECULE
ZINC09212369
 28 29 0 0 0
SMALL
GASTEIGER

@<TRIPOS>ATOM
      1 C          -1.1924   -0.5362   -0.7922 C.3     1  UNL1       -0.0361
      2 C           0.0021   -0.0041    0.0020 C.3     1  UNL1        0.0869
      3 H          -0.0352   -0.3809    1.0241 H       1  UNL1        0.0621
      4 C           1.3184   -0.4407   -0.6698 C.3     1  UNL1        0.1111
      5 H           1.9124   -1.0477    0.0135 H       1  UNL1        0.0646
      6 C           2.0444    0.8904   -0.9828 C.3     1  UNL1        0.1285
      7 H           1.8755    1.1918   -2.0166 H       1  UNL1        0.0665
      8 C           1.3576    1.8735   -0.0008 C.3     1  UNL1        0.1679
      9 H           1.7950    1.7905    0.9941 H       1  UNL1        0.0867
     10 O          -0.0174    1.4332    0.0099 O.3     1  UNL1       -0.3482
     11 N           1.4550    3.2490   -0.4956 N.ar    1  UNL1       -0.2687
     12 C           0.3155    3.9296   -0.8385 C.ar    1  UNL1        0.0525
     13 C           0.4064    5.1977   -1.2945 C.ar    1  UNL1        0.2036
     14 C           1.6849    5.7990   -1.4087 C.ar    1  UNL1        0.2894
     15 O           1.7924    6.9413   -1.8169 O.2     1  UNL1       -0.2646
     16 N           2.7808    5.0948   -1.0608 N.ar    1  UNL1       -0.2725
     17 H           3.6865    5.5109   -1.1425 H       1  UNL1        0.1735
     18 C           2.6614    3.8344   -0.6040 C.ar    1  UNL1        0.3315
     19 O           3.6588    3.2142   -0.2892 O.2     1  UNL1       -0.2464
     20 F          -0.7060    5.8837   -1.6366 F       1  UNL1       -0.1983
     21 O           3.4425    0.7860   -0.7064 O.3     1  UNL1       -0.3847
     22 O           1.0503   -1.1596   -1.8752 O.3     1  UNL1       -0.3865
     23 H          -1.1531   -0.1493   -1.8105 H       1  UNL1        0.0255
     24 H          -1.1570   -1.6254   -0.8158 H       1  UNL1        0.0255
     25 H          -2.1183   -0.2131   -0.3163 H       1  UNL1        0.0255
     26 H          -0.6497    3.4545   -0.7441 H       1  UNL1        0.0842
     27 H           3.8990    0.1173   -1.2350 H       1  UNL1        0.2101
     28 H           0.5456   -1.9739   -1.7436 H       1  UNL1        0.2100
@<TRIPOS>BOND
     1     1     2    1
     2     1    23    1
     3     1    24    1
     4     1    25    1
     5     2     3    1
     6     2    10    1
     7     2     4    1
     8     4     5    1
     9     4     6    1
    10     4    22    1
    11     6     7    1
    12     6     8    1
    13     6    21    1
    14     8     9    1
    15     8    10    1
    16     8    11    1
    17    11    18   ar
    18    11    12   ar
    19    12    13   ar
    20    12    26    1
    21    13    14   ar
    22    13    20    1
    23    14    15    2
    24    14    16   ar
    25    16    17    1
    26    16    18   ar
    27    18    19    2
    28    21    27    1
    29    22    28    1
