@<TRIPOS>MOLECULE
ZINC03831422
 47 49 0 0 0
SMALL
GASTEIGER

@<TRIPOS>ATOM
      1 C          -0.1098    6.9699    8.3554 C.3     1  UNL1       -0.0394
      2 C          -0.2246    5.5762    7.7939 C.ar    1  UNL1       -0.0454
      3 C          -1.0133    4.6602    8.4217 C.ar    1  UNL1       -0.0311
      4 C          -1.1253    3.3555    7.9025 C.ar    1  UNL1        0.0886
      5 C          -0.4077    3.0135    6.7338 C.ar    1  UNL1        0.0694
      6 C           0.3858    3.9721    6.1094 C.ar    1  UNL1       -0.0329
      7 C           0.4758    5.2398    6.6402 C.ar    1  UNL1       -0.0455
      8 C           1.3416    6.2720    5.9650 C.3     1  UNL1       -0.0394
      9 N          -0.5056    1.7447    6.2030 N.ar    1  UNL1       -0.3195
     10 C          -1.2970    0.8344    6.8366 C.ar    1  UNL1        0.1705
     11 N          -1.4413   -0.4042    6.3958 N.ar    1  UNL1       -0.1733
     12 C          -2.2186   -1.2813    7.0261 C.ar    1  UNL1        0.3505
     13 O          -2.3046   -2.4050    6.5628 O.2     1  UNL1       -0.2446
     14 N          -2.9133   -1.0052    8.1390 N.ar    1  UNL1       -0.2717
     15 H          -3.4765   -1.7191    8.5550 H       1  UNL1        0.1735
     16 C          -2.8673    0.2205    8.7104 C.ar    1  UNL1        0.2817
     17 O          -3.4966    0.4736    9.7193 O.2     1  UNL1       -0.2653
     18 C          -2.0186    1.2399    8.0541 C.ar    1  UNL1        0.1712
     19 N          -1.9021    2.4565    8.5215 N.ar    1  UNL1       -0.2368
     20 C           0.2294    1.3818    4.9887 C.3     1  UNL1        0.0538
     21 C          -0.6375    1.6720    3.7619 C.3     1  UNL1        0.1014
     22 H          -1.5928    1.1568    3.8620 H       1  UNL1        0.0638
     23 C           0.0786    1.1786    2.5031 C.3     1  UNL1        0.1106
     24 H           0.1720    0.0932    2.5400 H       1  UNL1        0.0646
     25 C          -0.7288    1.5792    1.2668 C.3     1  UNL1        0.1065
     26 H          -0.8222    2.6646    1.2299 H       1  UNL1        0.0643
     27 C          -0.0127    1.0858    0.0080 C.3     1  UNL1        0.0726
     28 O          -0.7038    1.5592   -1.1497 O.3     1  UNL1       -0.3924
     29 O          -2.0295    0.9914    1.3363 O.3     1  UNL1       -0.3869
     30 O           1.3792    1.7665    2.4336 O.3     1  UNL1       -0.3865
     31 O          -0.8637    3.0793    3.6605 O.3     1  UNL1       -0.3874
     32 H           0.7181    7.0094    9.0634 H       1  UNL1        0.0278
     33 H           0.0722    7.6747    7.5440 H       1  UNL1        0.0278
     34 H          -1.0365    7.2339    8.8649 H       1  UNL1        0.0278
     35 H          -1.5526    4.9340    9.3164 H       1  UNL1        0.0642
     36 H           0.9338    3.7206    5.2134 H       1  UNL1        0.0641
     37 H           2.3506    6.2240    6.3745 H       1  UNL1        0.0278
     38 H           1.3745    6.0740    4.8936 H       1  UNL1        0.0278
     39 H           0.9259    7.2646    6.1384 H       1  UNL1        0.0278
     40 H           0.4758    0.3204    5.0167 H       1  UNL1        0.0519
     41 H           1.1475    1.9666    4.9314 H       1  UNL1        0.0519
     42 H           0.0021   -0.0041    0.0020 H       1  UNL1        0.0584
     43 H           1.0099    1.4631    0.0003 H       1  UNL1        0.0584
     44 H          -0.3044    1.2838   -1.9862 H       1  UNL1        0.2095
     45 H          -2.0229    0.0250    1.3720 H       1  UNL1        0.2100
     46 H           1.3727    2.7328    2.3980 H       1  UNL1        0.2100
     47 H          -0.0553    3.6020    3.5688 H       1  UNL1        0.2100
@<TRIPOS>BOND
     1     1     2    1
     2     1    32    1
     3     1    33    1
     4     1    34    1
     5     2     7   ar
     6     2     3   ar
     7     3     4   ar
     8     3    35    1
     9     4    19   ar
    10     4     5   ar
    11     5     6   ar
    12     5     9   ar
    13     6     7   ar
    14     6    36    1
    15     7     8    1
    16     8    37    1
    17     8    38    1
    18     8    39    1
    19     9    10   ar
    20     9    20    1
    21    10    18    1
    22    10    11   ar
    23    11    12   ar
    24    12    13    2
    25    12    14   ar
    26    14    15    1
    27    14    16   ar
    28    16    17    2
    29    16    18   ar
    30    18    19   ar
    31    20    21    1
    32    20    40    1
    33    20    41    1
    34    21    22    1
    35    21    23    1
    36    21    31    1
    37    23    24    1
    38    23    25    1
    39    23    30    1
    40    25    26    1
    41    25    27    1
    42    25    29    1
    43    27    28    1
    44    27    42    1
    45    27    43    1
    46    28    44    1
    47    29    45    1
    48    30    46    1
    49    31    47    1
