@<TRIPOS>MOLECULE
ZINC00000294
 33 33 0 0 0
SMALL
GASTEIGER

@<TRIPOS>ATOM
      1 C          -2.5122    4.9732   -4.1537 C.3     1  UNL1       -0.0245
      2 C          -1.1869    5.3941   -3.5156 C.3     1  UNL1       -0.0363
      3 C          -0.0901    5.8648   -1.4089 C.3     1  UNL1       -0.0215
      4 H           0.7527    5.4446   -1.9577 H       1  UNL1        0.0851
      5 C           0.0149    7.3912   -1.4034 C.3     1  UNL1       -0.0213
      6 C          -0.0705    5.3471    0.0307 C.3     1  UNL1        0.0152
      7 C          -0.0501    3.8402    0.0223 C.ar    1  UNL1       -0.0415
      8 C           1.1565    3.1653    0.0081 C.ar    1  UNL1       -0.0584
      9 C           1.1752    1.7833    0.0004 C.ar    1  UNL1       -0.0610
     10 C          -0.0126    1.0758    0.0080 C.ar    1  UNL1       -0.0501
     11 C          -1.2188    1.7505    0.0173 C.ar    1  UNL1        0.0551
     12 C          -1.2375    3.1329    0.0294 C.ar    1  UNL1       -0.0467
     13 C          -2.5135    0.9794    0.0192 C.3     1  UNL1        0.4174
     14 F          -2.2393   -0.3924    0.0104 F       1  UNL1       -0.1659
     15 F          -3.2463    1.3011    1.1668 F       1  UNL1       -0.1659
     16 F          -3.2571    1.3136   -1.1177 F       1  UNL1       -0.1659
     17 H          -2.3944    4.9223   -5.2361 H       1  UNL1        0.0281
     18 H          -2.8038    3.9941   -3.7735 H       1  UNL1        0.0281
     19 H          -3.2828    5.7033   -3.9061 H       1  UNL1        0.0281
     20 H          -0.8953    6.3732   -3.8958 H       1  UNL1        0.0811
     21 H          -0.4164    4.6640   -3.7633 H       1  UNL1        0.0811
     22 H          -0.8280    7.8114   -0.8547 H       1  UNL1        0.0284
     23 H           0.9465    7.6896   -0.9226 H       1  UNL1        0.0284
     24 H           0.0009    7.7601   -2.4290 H       1  UNL1        0.0284
     25 H          -0.9608    5.6955    0.5543 H       1  UNL1        0.0368
     26 H           0.8189    5.7197    0.5387 H       1  UNL1        0.0368
     27 H           2.0843    3.7180    0.0025 H       1  UNL1        0.0620
     28 H           2.1177    1.2561   -0.0111 H       1  UNL1        0.0618
     29 H           0.0021   -0.0041    0.0020 H       1  UNL1        0.0623
     30 H          -2.1800    3.6602    0.0409 H       1  UNL1        0.0626
     31 N          -1.3548    5.4605   -2.0517 N.4     1  UNL1        0.2290
     32 H          -1.6331    4.5367   -1.7004 H       1  UNL1        0.2016
     33 H          -2.0843    6.1468   -1.8252 H       1  UNL1        0.2016
@<TRIPOS>UNITY_ATOM_ATTR
31 1
charge 1
@<TRIPOS>BOND
     1     1     2    1
     2     1    17    1
     3     1    18    1
     4     1    19    1
     5     2    20    1
     6     2    21    1
     7     2    31    1
     8     3     4    1
     9     3     5    1
    10     3     6    1
    11     3    31    1
    12     5    22    1
    13     5    23    1
    14     5    24    1
    15     6     7    1
    16     6    25    1
    17     6    26    1
    18     7    12   ar
    19     7     8   ar
    20     8     9   ar
    21     8    27    1
    22     9    10   ar
    23     9    28    1
    24    10    11   ar
    25    10    29    1
    26    11    12   ar
    27    11    13    1
    28    12    30    1
    29    13    14    1
    30    13    15    1
    31    13    16    1
    32    31    32    1
    33    31    33    1
