@<TRIPOS>MOLECULE
ZINC11592782
 92 97 0 0 0
SMALL
GASTEIGER

@<TRIPOS>ATOM
      1 C           8.0988   -3.5028    0.1040 C.3     1  UNL1        0.0332
      2 C           7.4957   -2.7101    1.2349 C.2     1  UNL1        0.3044
      3 O           7.7669   -2.9876    2.3792 O.2     1  UNL1       -0.2512
      4 O           6.6573   -1.6957    0.9710 O.3     1  UNL1       -0.4553
      5 C           6.1538   -0.9444    2.1064 C.3     1  UNL1        0.1508
      6 H           6.6562   -1.2566    3.0228 H       1  UNL1        0.0797
      7 C           4.6258   -1.1180    2.2385 C.3     1  UNL1        0.0199
      8 H           4.1682   -1.2160    1.2584 H       1  UNL1        0.0889
      9 C           4.1352    0.1681    2.9368 C.3     1  UNL1       -0.0024
     10 C           5.2417    1.2041    2.7541 C.3     1  UNL1       -0.0238
     11 H           5.7034    1.3257    3.7650 H       1  UNL1        0.0312
     12 C           6.3349    0.5869    1.8793 C.3     1  UNL1        0.0136
     13 C           6.0895    0.8363    0.3943 C.3     1  UNL1       -0.0435
     14 C           5.8281    2.2959    0.0778 C.3     1  UNL1       -0.0488
     15 C           4.6964    2.9012    0.8917 C.3     1  UNL1       -0.0321
     16 H           4.8808    4.0185    0.8316 H       1  UNL1        0.0309
     17 C           4.7890    2.5782    2.3565 C.3     1  UNL1       -0.0341
     18 H           5.6353    3.2405    2.7238 H       1  UNL1        0.0306
     19 C           3.6026    3.0524    3.1851 C.3     1  UNL1       -0.0494
     20 C           2.2622    2.8162    2.5021 C.3     1  UNL1       -0.0494
     21 C           2.2739    3.4158    1.1001 C.3     1  UNL1       -0.0326
     22 H           2.5375    4.4801    1.1789 H       1  UNL1        0.0307
     23 C           3.3339    2.7237    0.2404 C.3     1  UNL1       -0.0209
     24 C           3.3478    3.4189   -1.1315 C.3     1  UNL1       -0.0013
     25 C           1.9792    3.3252   -1.8003 C.3     1  UNL1        0.0063
     26 H           1.7229    2.2851   -2.0049 H       1  UNL1        0.0877
     27 C           0.9021    3.9551   -0.9194 C.3     1  UNL1        0.0980
     28 H          -0.0747    3.8088   -1.3892 H       1  UNL1        0.0650
     29 C           0.8941    3.3007    0.4612 C.3     1  UNL1       -0.0182
     30 O           1.1473    5.3564   -0.7868 O.3     1  UNL1       -0.3862
     31 C           0.7326    3.9643   -3.7764 C.3     1  UNL1       -0.0075
     32 C           0.8062    4.7748   -5.0731 C.3     1  UNL1        0.0878
     33 O           1.8844    4.2850   -5.8750 O.3     1  UNL1       -0.3693
     34 C           3.1583    4.3491   -5.2281 C.3     1  UNL1        0.0878
     35 C           3.1085    3.5342   -3.9330 C.3     1  UNL1       -0.0075
     36 C           2.9825    1.2541    0.0381 C.3     1  UNL1       -0.0589
     37 C           7.7382    1.0484    2.3058 C.3     1  UNL1       -0.0557
     38 N           4.3175   -2.2914    3.0668 N.4     1  UNL1        0.2509
     39 C           4.7135   -3.5232    2.3515 C.3     1  UNL1       -0.0292
     40 C           3.6315   -4.5653    2.7295 C.3     1  UNL1       -0.0076
     41 C           2.3522   -3.6887    2.7687 C.3     1  UNL1       -0.0076
     42 C           2.8676   -2.3464    3.3291 C.3     1  UNL1       -0.0292
     43 C           5.0471   -2.2055    4.3388 C.3     1  UNL1       -0.0111
     44 C           4.6245   -3.3387    5.2379 C.2     1  UNL1       -0.0465
     45 C           5.5244   -4.1493    5.7371 C.2     1  UNL1       -0.0977
     46 H           9.0399   -3.0444   -0.1996 H       1  UNL1        0.0342
     47 H           8.2827   -4.5251    0.4345 H       1  UNL1        0.0342
     48 H           7.4101   -3.5124   -0.7407 H       1  UNL1        0.0342
     49 H           3.9964   -0.0369    4.0070 H       1  UNL1        0.0324
     50 H           3.1927    0.4954    2.5183 H       1  UNL1        0.0324
     51 H           7.0026    0.5324   -0.1504 H       1  UNL1        0.0272
     52 H           5.2903    0.1996    0.0331 H       1  UNL1        0.0272
     53 H           6.7471    2.8726    0.2698 H       1  UNL1        0.0268
     54 H           5.6166    2.4012   -0.9926 H       1  UNL1        0.0268
     55 H           3.7154    4.1251    3.3887 H       1  UNL1        0.0268
     56 H           3.6087    2.5340    4.1514 H       1  UNL1        0.0268
     57 H           1.4799    3.3251    3.0870 H       1  UNL1        0.0268
     58 H           2.0136    1.7624    2.4752 H       1  UNL1        0.0268
     59 H           4.0926    2.9406   -1.7680 H       1  UNL1        0.0326
     60 H           3.6159    4.4669   -0.9911 H       1  UNL1        0.0326
     61 H           0.5847    2.2627    0.3818 H       1  UNL1        0.0295
     62 H           0.1667    3.8257    1.0939 H       1  UNL1        0.0295
     63 H           0.4988    5.8189   -0.2384 H       1  UNL1        0.2100
     64 H           0.5091    2.9233   -4.0100 H       1  UNL1        0.0837
     65 H          -0.0510    4.3708   -3.1370 H       1  UNL1        0.0837
     66 H           0.9765    5.8252   -4.8366 H       1  UNL1        0.0613
     67 H          -0.1305    4.6723   -5.6208 H       1  UNL1        0.0613
     68 H           3.3969    5.3870   -4.9962 H       1  UNL1        0.0613
     69 H           3.9225    3.9379   -5.8877 H       1  UNL1        0.0613
     70 H           4.0592    3.6268   -3.4079 H       1  UNL1        0.0837
     71 H           2.9234    2.4862   -4.1685 H       1  UNL1        0.0837
     72 H           3.7683    0.7691   -0.5411 H       1  UNL1        0.0235
     73 H           2.8919    0.7654    1.0081 H       1  UNL1        0.0235
     74 H           2.0362    1.1772   -0.4974 H       1  UNL1        0.0235
     75 H           7.9196    0.7521    3.3390 H       1  UNL1        0.0236
     76 H           8.4845    0.5871    1.6592 H       1  UNL1        0.0236
     77 H           7.8051    2.1331    2.2218 H       1  UNL1        0.0236
     78 H           4.7164   -3.3526    1.2750 H       1  UNL1        0.0815
     79 H           5.6956   -3.8573    2.6863 H       1  UNL1        0.0815
     80 H           3.8353   -5.0027    3.7069 H       1  UNL1        0.0319
     81 H           3.5510   -5.3397    1.9666 H       1  UNL1        0.0319
     82 H           1.6071   -4.1237    3.4348 H       1  UNL1        0.0319
     83 H           1.9417   -3.5562    1.7677 H       1  UNL1        0.0319
     84 H           2.6828   -2.2971    4.4022 H       1  UNL1        0.0815
     85 H           2.3685   -1.5167    2.8286 H       1  UNL1        0.0815
     86 H           6.1183   -2.2728    4.1486 H       1  UNL1        0.0862
     87 H           4.8231   -1.2548    4.8227 H       1  UNL1        0.0862
     88 H           3.5797   -3.4825    5.4707 H       1  UNL1        0.0619
     89 H           5.2215   -4.9614    6.3814 H       1  UNL1        0.0534
     90 H           6.5691   -4.0055    5.5043 H       1  UNL1        0.0534
     91 N           2.0298    4.0710   -3.0765 N.4     1  UNL1        0.2425
     92 H           2.2218    5.0599   -2.8777 H       1  UNL1        0.2039
@<TRIPOS>UNITY_ATOM_ATTR
38 1
charge 1
91 1
charge 1
@<TRIPOS>BOND
     1     1     2    1
     2     1    46    1
     3     1    47    1
     4     1    48    1
     5     2     3    2
     6     2     4    1
     7     4     5    1
     8     5     6    1
     9     5    12    1
    10     5     7    1
    11     7     8    1
    12     7     9    1
    13     7    38    1
    14     9    10    1
    15     9    49    1
    16     9    50    1
    17    10    11    1
    18    10    17    1
    19    10    12    1
    20    12    13    1
    21    12    37    1
    22    13    14    1
    23    13    51    1
    24    13    52    1
    25    14    15    1
    26    14    53    1
    27    14    54    1
    28    15    16    1
    29    15    23    1
    30    15    17    1
    31    17    18    1
    32    17    19    1
    33    19    20    1
    34    19    55    1
    35    19    56    1
    36    20    21    1
    37    20    57    1
    38    20    58    1
    39    21    22    1
    40    21    29    1
    41    21    23    1
    42    23    24    1
    43    23    36    1
    44    24    25    1
    45    24    59    1
    46    24    60    1
    47    25    26    1
    48    25    27    1
    49    25    91    1
    50    27    28    1
    51    27    29    1
    52    27    30    1
    53    29    61    1
    54    29    62    1
    55    30    63    1
    56    31    32    1
    57    31    64    1
    58    31    65    1
    59    31    91    1
    60    32    33    1
    61    32    66    1
    62    32    67    1
    63    33    34    1
    64    34    35    1
    65    34    68    1
    66    34    69    1
    67    35    70    1
    68    35    71    1
    69    35    91    1
    70    36    72    1
    71    36    73    1
    72    36    74    1
    73    37    75    1
    74    37    76    1
    75    37    77    1
    76    38    42    1
    77    38    39    1
    78    38    43    1
    79    39    40    1
    80    39    78    1
    81    39    79    1
    82    40    41    1
    83    40    80    1
    84    40    81    1
    85    41    42    1
    86    41    82    1
    87    41    83    1
    88    42    84    1
    89    42    85    1
    90    43    44    1
    91    43    86    1
    92    43    87    1
    93    44    45    2
    94    44    88    1
    95    45    89    1
    96    45    90    1
    97    91    92    1
