@<TRIPOS>MOLECULE
ZINC03831344
 62 65 0 0 0
SMALL
GASTEIGER

@<TRIPOS>ATOM
      1 C          -2.9141    0.8713   -0.8413 C.3     1  UNL1       -0.0493
      2 C          -2.4686    0.7295    0.6155 C.3     1  UNL1        0.0123
      3 N          -1.0735    0.2845    0.6584 N.am    1  UNL1       -0.2925
      4 C          -0.7641   -1.1454    0.6861 C.3     1  UNL1        0.0314
      5 C           0.4834   -1.4395   -0.1416 C.3     1  UNL1        0.0401
      6 N           1.5836   -0.5614    0.2574 N.am    1  UNL1       -0.2167
      7 C           1.3394    0.7217    0.5911 C.2     1  UNL1        0.3091
      8 O           2.2559    1.4834    0.8176 O.2     1  UNL1       -0.2645
      9 C          -0.0781    1.1934    0.6778 C.2     1  UNL1        0.3022
     10 O          -0.3282    2.3777    0.7647 O.2     1  UNL1       -0.2649
     11 C           2.8444   -1.0365    0.2919 C.2     1  UNL1        0.3098
     12 O           3.7691   -0.2886    0.5424 O.2     1  UNL1       -0.2522
     13 N           3.0797   -2.3411    0.0487 N.am    1  UNL1       -0.2836
     14 CA          4.4340   -2.8806    0.1937 C.3     1  UNL1        0.1261
     15 HA          5.1599   -2.1271   -0.1121 H       1  UNL1        0.0646
     16 C           4.6744   -3.2544    1.6337 C.ar    1  UNL1       -0.0184
     17 C           3.6681   -3.8510    2.3700 C.ar    1  UNL1       -0.0563
     18 C           3.8900   -4.1979    3.6896 C.ar    1  UNL1       -0.0614
     19 C           5.1151   -3.9399    4.2755 C.ar    1  UNL1       -0.0617
     20 C           6.1197   -3.3384    3.5406 C.ar    1  UNL1       -0.0614
     21 C           5.8993   -2.9955    2.2198 C.ar    1  UNL1       -0.0563
     22 C           4.5833   -4.1034   -0.6744 C.2     1  UNL1        0.2386
     23 O           3.6502   -4.4865   -1.3478 O.2     1  UNL1       -0.2734
     24 N           5.7536   -4.7712   -0.7023 N.am    1  UNL1       -0.2999
     25 CA          5.8987   -5.9599   -1.5462 C.3     1  UNL1        0.1277
     26 HA          4.9470   -6.4554   -1.7383 H       1  UNL1        0.0622
     27 C           6.9933   -6.9132   -1.0637 C.3     1  UNL1        0.1003
     28 H           7.5325   -6.6329   -0.1588 H       1  UNL1        0.0640
     29 N           7.6183   -6.6068   -2.3684 N.am    1  UNL1       -0.2761
     30 C           6.7020   -5.7074   -2.7978 C.2     1  UNL1        0.2401
     31 O           6.5789   -4.9994   -3.7748 O.2     1  UNL1       -0.2734
     32 CA          7.9111   -7.7710   -3.2074 C.3     1  UNL1        0.0807
     33 HA          8.8616   -8.2081   -2.9014 H       1  UNL1        0.0576
     34 C           6.7797   -8.8324   -3.0538 C.3     1  UNL1        0.0366
     35 S           6.5305   -8.6884   -1.2272 S.3     1  UNL1       -0.1275
     36 C           7.2599  -10.2303   -3.4494 C.3     1  UNL1       -0.0486
     37 C           5.5222   -8.4328   -3.8282 C.3     1  UNL1       -0.0486
     38 C           8.0008   -7.3398   -4.6486 C.2     1  UNL1        0.0635
     39 O           7.1299   -6.6540   -5.1292 O.co2   1  UNL1       -0.5478
     40 H          -2.2834    1.6041   -1.3445 H       1  UNL1        0.0245
     41 H          -2.8243   -0.0917   -1.3441 H       1  UNL1        0.0245
     42 H          -3.9522    1.2023   -0.8732 H       1  UNL1        0.0245
     43 H          -3.0993   -0.0034    1.1187 H       1  UNL1        0.0462
     44 H          -2.5584    1.6924    1.1183 H       1  UNL1        0.0462
     45 H          -0.5931   -1.4564    1.7167 H       1  UNL1        0.0480
     46 H          -1.6066   -1.7036    0.2777 H       1  UNL1        0.0480
     47 H           0.2605   -1.2800   -1.1966 H       1  UNL1        0.0485
     48 H           0.7787   -2.4777    0.0105 H       1  UNL1        0.0485
     49 H           2.3524   -2.9228   -0.2224 H       1  UNL1        0.1513
     50 H           2.7096   -4.0493    1.9134 H       1  UNL1        0.0621
     51 H           3.1052   -4.6681    4.2637 H       1  UNL1        0.0618
     52 H           5.2876   -4.2084    5.3073 H       1  UNL1        0.0618
     53 H           7.0769   -3.1368    3.9983 H       1  UNL1        0.0618
     54 H           6.6841   -2.5256    1.6456 H       1  UNL1        0.0621
     55 H           6.4999   -4.4648   -0.1637 H       1  UNL1        0.1496
     56 H           6.5069  -10.9663   -3.1676 H       1  UNL1        0.0244
     57 H           7.4197  -10.2682   -4.5269 H       1  UNL1        0.0244
     58 H           8.1951  -10.4522   -2.9353 H       1  UNL1        0.0244
     59 H           5.2514   -7.4072   -3.5771 H       1  UNL1        0.0244
     60 H           5.7159   -8.5057   -4.8984 H       1  UNL1        0.0244
     61 H           4.7032   -9.1006   -3.5609 H       1  UNL1        0.0244
     62 OXT         9.0482   -7.7176   -5.3982 O.co2   1  UNL1       -0.5478
@<TRIPOS>UNITY_ATOM_ATTR
62 1
charge -1
@<TRIPOS>BOND
     1     1     2    1
     2     1    40    1
     3     1    41    1
     4     1    42    1
     5     2     3    1
     6     2    43    1
     7     2    44    1
     8     3     9   am
     9     3     4    1
    10     4     5    1
    11     4    45    1
    12     4    46    1
    13     5     6    1
    14     5    47    1
    15     5    48    1
    16     6     7   am
    17     6    11   am
    18     7     8    2
    19     7     9    1
    20     9    10    2
    21    11    12    2
    22    11    13   am
    23    13    14    1
    24    13    49    1
    25    14    15    1
    26    14    16    1
    27    14    22    1
    28    16    21   ar
    29    16    17   ar
    30    17    18   ar
    31    17    50    1
    32    18    19   ar
    33    18    51    1
    34    19    20   ar
    35    19    52    1
    36    20    21   ar
    37    20    53    1
    38    21    54    1
    39    22    23    2
    40    22    24   am
    41    24    25    1
    42    24    55    1
    43    25    26    1
    44    25    30    1
    45    25    27    1
    46    27    28    1
    47    27    35    1
    48    27    29    1
    49    29    30   am
    50    29    32    1
    51    30    31    2
    52    32    33    1
    53    32    34    1
    54    32    38    1
    55    34    35    1
    56    34    36    1
    57    34    37    1
    58    36    56    1
    59    36    57    1
    60    36    58    1
    61    37    59    1
    62    37    60    1
    63    37    61    1
    64    38    39   ar
    65    38    62   ar
