@<TRIPOS>MOLECULE
ZINC00967473
 15 15 0 0 0
SMALL
GASTEIGER

@<TRIPOS>ATOM
      1 C1         -2.2319    2.7088   -0.4721 C.3     1  <1>         0.0469
      2 C2         -1.4628    2.8670    0.8738 C.3     1  <1>         0.0278
      3 H1         -0.7275    3.6667    0.7842 H       1  <1>         0.0924
      4 C3         -0.0127    1.0858    0.0080 C.3     1  <1>         0.0147
      5 S1         -0.9815    1.7345   -1.4169 S.3     1  <1>        -0.1058
      6 C4         -2.4349    3.1936    1.9780 C.2     1  <1>         0.0902
      7 O1         -2.8109    2.3246    2.7286 O.co2   1  <1>        -0.5441
      8 H2         -2.4199    3.6753   -0.9395 H       1  <1>         0.0438
      9 H3         -3.1566    2.1472   -0.3388 H       1  <1>         0.0438
     10 H4          0.0021   -0.0041    0.0020 H       1  <1>         0.0937
     11 H5          1.0015    1.4852    0.0005 H       1  <1>         0.0937
     12 N1         -0.7735    1.5894    1.1936 N.4     1  <1>         0.2414
     13 H6         -1.4725    0.8890    1.4675 H       1  <1>         0.2029
     14 H7         -0.1212    1.7442    1.9713 H       1  <1>         0.2029
     15 O2         -2.8831    4.4500    2.1278 O.co2   1  <1>        -0.5441
@<TRIPOS>UNITY_ATOM_ATTR
12 1
charge 1
15 1
charge -1
@<TRIPOS>BOND
     1     1     5    1
     2     1     2    1
     3     1     8    1
     4     1     9    1
     5     2     3    1
     6     2     6    1
     7     2    12    1
     8     4     5    1
     9     4    10    1
    10     4    11    1
    11     4    12    1
    12     6     7   ar
    13     6    15   ar
    14    12    13    1
    15    12    14    1
