@<TRIPOS>MOLECULE
ZINC03831536
 51 54 0 0 0
SMALL
GASTEIGER

@<TRIPOS>ATOM
      1 C          -1.1398    5.0863    3.4635 C.3     1  UNL1       -0.0618
      2 C          -1.5340    5.5760    2.0749 C.3     1  UNL1       -0.0365
      3 H          -0.8930    6.4273    1.8033 H       1  UNL1        0.0304
      4 C          -2.9819    6.0676    2.1173 C.3     1  UNL1       -0.0282
      5 C          -3.9346    4.9043    2.3055 C.2     1  UNL1       -0.0627
      6 C          -3.6582    3.6965    1.9191 C.2     1  UNL1       -0.0661
      7 C          -4.6057    2.5248    2.0658 C.3     1  UNL1       -0.0245
      8 C          -5.7267    2.7762    3.0638 C.3     1  UNL1        0.0098
      9 C          -6.2476    4.1772    2.8063 C.2     1  UNL1        0.1376
     10 O          -7.3903    4.3913    2.4854 O.2     1  UNL1       -0.2971
     11 C          -5.2417    5.2857    2.9761 C.3     1  UNL1        0.0272
     12 C          -2.3506    3.3343    1.2386 C.3     1  UNL1       -0.0163
     13 H          -2.6210    2.9162    0.2438 H       1  UNL1        0.0349
     14 C          -1.4468    4.5117    0.9971 C.3     1  UNL1       -0.0282
     15 H          -1.8963    5.0114    0.0893 H       1  UNL1        0.0312
     16 C          -0.0489    4.1895    0.5404 C.3     1  UNL1       -0.0284
     17 H           0.5909    5.0533    0.7627 H       1  UNL1        0.0310
     18 C          -0.0399    3.9789   -0.9894 C.3     1  UNL1       -0.0458
     19 C           1.0803    2.9662   -1.2823 C.3     1  UNL1       -0.0118
     20 C           1.6722    2.5550    0.0750 C.3     1  UNL1        0.1317
     21 C           0.6009    2.9360    1.1337 C.3     1  UNL1        0.0111
     22 C          -0.3996    1.7905    1.2413 C.3     1  UNL1       -0.0433
     23 C          -1.6499    2.2219    2.0114 C.3     1  UNL1       -0.0456
     24 C           1.2911    3.2106    2.4794 C.3     1  UNL1       -0.0558
     25 C           1.9764    1.1195    0.0950 C.1     1  UNL1       -0.0704
     26 C           2.2197   -0.0289    0.1110 C.1     1  UNL1       -0.1163
     27 O           2.8710    3.3018    0.3231 O.3     1  UNL1       -0.3760
     28 H          -1.7029    4.1846    3.7042 H       1  UNL1        0.0233
     29 H          -0.0729    4.8639    3.4811 H       1  UNL1        0.0233
     30 H          -1.3618    5.8602    4.1983 H       1  UNL1        0.0233
     31 H          -3.2112    6.5765    1.1848 H       1  UNL1        0.0313
     32 H          -3.0927    6.7599    2.9498 H       1  UNL1        0.0313
     33 H          -5.0459    2.3093    1.0893 H       1  UNL1        0.0314
     34 H          -4.0435    1.6482    2.3895 H       1  UNL1        0.0314
     35 H          -5.3696    2.6930    3.9941 H       1  UNL1        0.0345
     36 H          -6.5277    2.0500    2.9137 H       1  UNL1        0.0345
     37 H          -5.0834    5.4399    3.9514 H       1  UNL1        0.0387
     38 H          -5.6289    6.1966    2.5237 H       1  UNL1        0.0387
     39 H          -1.0074    3.5852   -1.3149 H       1  UNL1        0.0269
     40 H           0.1546    4.9289   -1.4952 H       1  UNL1        0.0269
     41 H           1.8530    3.4254   -1.9030 H       1  UNL1        0.0303
     42 H           0.6761    2.0910   -1.7942 H       1  UNL1        0.0303
     43 H          -0.7053    1.4662    0.2464 H       1  UNL1        0.0272
     44 H           0.0446    0.9522    1.7819 H       1  UNL1        0.0272
     45 H          -2.3149    1.3526    2.0863 H       1  UNL1        0.0271
     46 H          -1.3842    2.5336    3.0137 H       1  UNL1        0.0271
     47 H           1.8770    4.1269    2.4068 H       1  UNL1        0.0236
     48 H           0.5369    3.3224    3.2584 H       1  UNL1        0.0236
     49 H           1.9487    2.3775    2.7271 H       1  UNL1        0.0236
     50 H           2.4373   -1.0560    0.1253 H       1  UNL1        0.1229
     51 H           3.5746    3.1414   -0.3206 H       1  UNL1        0.2114
@<TRIPOS>BOND
     1     1     2    1
     2     1    28    1
     3     1    29    1
     4     1    30    1
     5     2     3    1
     6     2    14    1
     7     2     4    1
     8     4     5    1
     9     4    31    1
    10     4    32    1
    11     5    11    1
    12     5     6    2
    13     6     7    1
    14     6    12    1
    15     7     8    1
    16     7    33    1
    17     7    34    1
    18     8     9    1
    19     8    35    1
    20     8    36    1
    21     9    10    2
    22     9    11    1
    23    11    37    1
    24    11    38    1
    25    12    13    1
    26    12    23    1
    27    12    14    1
    28    14    15    1
    29    14    16    1
    30    16    17    1
    31    16    21    1
    32    16    18    1
    33    18    19    1
    34    18    39    1
    35    18    40    1
    36    19    20    1
    37    19    41    1
    38    19    42    1
    39    20    21    1
    40    20    25    1
    41    20    27    1
    42    21    22    1
    43    21    24    1
    44    22    23    1
    45    22    43    1
    46    22    44    1
    47    23    45    1
    48    23    46    1
    49    24    47    1
    50    24    48    1
    51    24    49    1
    52    25    26    3
    53    26    50    1
    54    27    51    1
