@<TRIPOS>MOLECULE
ZINC00896800
 23 24 0 0 0
SMALL
GASTEIGER

@<TRIPOS>ATOM
      1 C          -0.0661    6.5072   -0.2934 C.ar    1  UNL1       -0.0078
      2 C           0.7033    7.6301   -0.3655 C.ar    1  UNL1        0.0595
      3 C           2.0420    7.2335   -0.3141 C.ar    1  UNL1        0.4380
      4 O           2.1236    5.9044   -0.2074 O.2     1  UNL1       -0.3992
      5 C           0.8775    5.3768   -0.1841 C.ar    1  UNL1        0.1545
      6 C           0.5516    4.0393   -0.0835 C.2     1  UNL1        0.0884
      7 N           1.5202    3.1190    0.0037 N.2     1  UNL1       -0.1802
      8 N           1.2201    1.8645   -0.0004 N.am    1  UNL1       -0.1678
      9 C          -0.1334    1.2832    0.0124 C.3     1  UNL1        0.1159
     10 C           0.1205   -0.2112    0.0011 C.2     1  UNL1        0.2399
     11 O          -0.7093   -1.0950    0.0054 O.2     1  UNL1       -0.2736
     12 N           1.4606   -0.3529   -0.0156 N.am    1  UNL1       -0.2373
     13 C           2.0822    0.8318   -0.0163 C.2     1  UNL1        0.3284
     14 O           3.2895    0.9606   -0.0252 O.2     1  UNL1       -0.2504
     15 N           3.2067    8.1566   -0.3701 N.pl3   1  UNL1        0.1186
     16 O           3.0133    9.4549   -0.4765 O.2     1  UNL1        0.0446
     17 O           4.4314    7.6757   -0.3133 O.co2   1  UNL1       -0.5735
     18 H          -1.1447    6.4552   -0.3105 H       1  UNL1        0.0658
     19 H           0.3427    8.6445   -0.4510 H       1  UNL1        0.0722
     20 H          -0.4846    3.7351   -0.0751 H       1  UNL1        0.0883
     21 H          -0.6886    1.5845   -0.8759 H       1  UNL1        0.0582
     22 H          -0.6698    1.5742    0.9155 H       1  UNL1        0.0582
     23 H           1.9180   -1.2082   -0.0262 H       1  UNL1        0.1592
@<TRIPOS>UNITY_ATOM_ATTR
15 1
charge 1
17 1
charge -1
@<TRIPOS>BOND
     1     1     5   ar
     2     1     2   ar
     3     1    18    1
     4     2     3   ar
     5     2    19    1
     6     3     4   ar
     7     3    15    1
     8     4     5   ar
     9     5     6    1
    10     6     7    2
    11     6    20    1
    12     7     8    1
    13     8    13   am
    14     8     9    1
    15     9    10    1
    16     9    21    1
    17     9    22    1
    18    10    11    2
    19    10    12   am
    20    12    13   am
    21    12    23    1
    22    13    14    2
    23    15    16    2
    24    15    17    1
