@<TRIPOS>MOLECULE
ZINC00033518
 47 51 0 0 0
SMALL
GASTEIGER

@<TRIPOS>ATOM
      1 C           4.7704    1.3288   -0.0530 C.3     1  UNL1        0.0790
      2 O           3.5639    2.0942   -0.0291 O.3     1  UNL1       -0.4914
      3 C           2.3935    1.4017   -0.0207 C.ar    1  UNL1        0.1620
      4 C           2.4047    0.0161   -0.0352 C.ar    1  UNL1       -0.0160
      5 C           1.2128   -0.6803   -0.0235 C.ar    1  UNL1       -0.0542
      6 C           0.0021   -0.0041    0.0020 C.ar    1  UNL1       -0.0298
      7 C          -0.0166    1.3743    0.0096 C.ar    1  UNL1        0.0456
      8 C           1.1813    2.0804    0.0020 C.ar    1  UNL1        0.1699
      9 O           1.1663    3.4402    0.0159 O.3     1  UNL1       -0.4910
     10 C           1.1749    4.0760    1.2956 C.3     1  UNL1        0.0790
     11 C          -1.3061    2.1500    0.0173 C.3     1  UNL1       -0.0014
     12 C          -3.6965    2.0315    0.3251 C.3     1  UNL1       -0.0269
     13 C          -4.7948    1.2429    1.0354 C.3     1  UNL1        0.0133
     14 C          -4.8196   -0.1723    0.5103 C.ar    1  UNL1       -0.0302
     15 C          -5.9882   -0.9068    0.7092 C.ar    1  UNL1       -0.0123
     16 C          -6.0224   -2.2068    0.2326 C.ar    1  UNL1        0.1665
     17 C          -4.9138   -2.7604   -0.4267 C.ar    1  UNL1        0.1667
     18 C          -3.7584   -2.0223   -0.6198 C.ar    1  UNL1       -0.0074
     19 C          -3.7318   -0.7087   -0.1321 C.ar    1  UNL1        0.0075
     20 C          -2.4612    0.0698   -0.3647 C.3     1  UNL1        0.0097
     21 H          -2.3847    0.3310   -1.4202 H       1  UNL1        0.0907
     22 C          -1.2704   -0.8095    0.0292 C.3     1  UNL1        0.0205
     23 O          -5.2101   -4.0307   -0.7843 O.3     1  UNL1       -0.4526
     24 C          -6.6465   -4.1323   -0.6930 C.3     1  UNL1        0.2332
     25 O          -7.0071   -3.1321    0.2823 O.3     1  UNL1       -0.4526
     26 H           4.7901    0.7096   -0.9498 H       1  UNL1        0.0660
     27 H           5.6277    2.0020   -0.0575 H       1  UNL1        0.0660
     28 H           4.8137    0.6911    0.8299 H       1  UNL1        0.0660
     29 H           3.3434   -0.5176   -0.0553 H       1  UNL1        0.0655
     30 H           1.2232   -1.7602   -0.0347 H       1  UNL1        0.0622
     31 H           0.2951    3.7676    1.8604 H       1  UNL1        0.0660
     32 H           2.0748    3.7875    1.8387 H       1  UNL1        0.0660
     33 H           1.1612    5.1579    1.1639 H       1  UNL1        0.0660
     34 H          -1.2159    2.9893    0.7069 H       1  UNL1        0.0869
     35 H          -1.5023    2.5299   -0.9854 H       1  UNL1        0.0869
     36 H          -3.5923    3.0121    0.7896 H       1  UNL1        0.0818
     37 H          -3.9527    2.1513   -0.7276 H       1  UNL1        0.0818
     38 H          -4.5970    1.2291    2.1072 H       1  UNL1        0.0365
     39 H          -5.7593    1.7158    0.8501 H       1  UNL1        0.0365
     40 H          -6.8380   -0.4765    1.2182 H       1  UNL1        0.0658
     41 H          -2.9048   -2.4467   -1.1272 H       1  UNL1        0.0660
     42 H          -1.1872   -1.6401   -0.6717 H       1  UNL1        0.0372
     43 H          -1.4293   -1.1999    1.0345 H       1  UNL1        0.0372
     44 H          -7.1071   -3.9106   -1.6557 H       1  UNL1        0.1166
     45 H          -6.9382   -5.1253   -0.3508 H       1  UNL1        0.1166
     46 N          -2.4213    1.2936    0.4573 N.4     1  UNL1        0.2445
     47 H          -2.2815    1.0349    1.4411 H       1  UNL1        0.2043
@<TRIPOS>UNITY_ATOM_ATTR
46 1
charge 1
@<TRIPOS>BOND
     1     1     2    1
     2     1    26    1
     3     1    27    1
     4     1    28    1
     5     2     3    1
     6     3     8   ar
     7     3     4   ar
     8     4     5   ar
     9     4    29    1
    10     5     6   ar
    11     5    30    1
    12     6    22    1
    13     6     7   ar
    14     7     8   ar
    15     7    11    1
    16     8     9    1
    17     9    10    1
    18    10    31    1
    19    10    32    1
    20    10    33    1
    21    11    34    1
    22    11    35    1
    23    11    46    1
    24    12    13    1
    25    12    36    1
    26    12    37    1
    27    12    46    1
    28    13    14    1
    29    13    38    1
    30    13    39    1
    31    14    19   ar
    32    14    15   ar
    33    15    16   ar
    34    15    40    1
    35    16    25    1
    36    16    17   ar
    37    17    18   ar
    38    17    23    1
    39    18    19   ar
    40    18    41    1
    41    19    20    1
    42    20    21    1
    43    20    22    1
    44    20    46    1
    45    22    42    1
    46    22    43    1
    47    23    24    1
    48    24    25    1
    49    24    44    1
    50    24    45    1
    51    46    47    1
