@<TRIPOS>MOLECULE
ZINC08034234
 54 57 0 0 0
SMALL
GASTEIGER

@<TRIPOS>ATOM
      1 C           1.1830    5.2611   -1.9633 C.3     1  UNL1       -0.0427
      2 C           1.8513    3.0180   -2.5833 C.3     1  UNL1       -0.0427
      3 C           1.3161    3.5281   -0.2776 C.3     1  UNL1        0.0441
      4 H           0.8159    4.2565    0.3605 H       1  UNL1        0.0939
      5 C           0.8086    2.1290    0.0588 C.3     1  UNL1        0.0531
      6 H           1.2322    1.4078   -0.6402 H       1  UNL1        0.0397
      7 C          -0.7178    2.0658   -0.0045 C.3     1  UNL1       -0.0314
      8 C          -1.1432    0.6048    0.1446 C.3     1  UNL1        0.0218
      9 H          -0.8410    0.0607   -0.7502 H       1  UNL1        0.0380
     10 C          -2.6600    0.5133    0.2824 C.3     1  UNL1        0.0893
     11 H          -2.9835    1.1192    1.1288 H       1  UNL1        0.0650
     12 C          -3.0726   -0.9174    0.5058 C.ar    1  UNL1        0.0141
     13 C          -4.2457   -1.3971   -0.0387 C.ar    1  UNL1        0.0475
     14 C          -4.6225   -2.7151    0.1676 C.ar    1  UNL1       -0.0396
     15 C          -3.8303   -3.5612    0.9185 C.ar    1  UNL1       -0.0181
     16 C          -2.6474   -3.0951    1.4738 C.ar    1  UNL1        0.1281
     17 C          -2.2648   -1.7649    1.2672 C.ar    1  UNL1        0.0704
     18 C          -1.0113   -1.2437    1.8508 C.2     1  UNL1        0.1967
     19 O          -0.4558   -1.8328    2.7606 O.2     1  UNL1       -0.2867
     20 C          -0.4844   -0.0281    1.3376 C.2     1  UNL1        0.0463
     21 C           0.5914    0.4973    1.9397 C.2     1  UNL1        0.1408
     22 C           1.2204    1.7861    1.5201 C.3     1  UNL1        0.1935
     23 C           2.7302    1.6944    1.5377 C.2     1  UNL1        0.2108
     24 O           3.3069    0.7888    2.1038 O.2     1  UNL1       -0.2882
     25 C           3.4781    2.7458    0.7702 C.2     1  UNL1        0.1248
     26 C           2.8008    3.6116   -0.0540 C.2     1  UNL1        0.1579
     27 O           3.4926    4.5718   -0.6852 O.2     1  UNL1       -0.5050
     28 C           4.9329    2.8845    0.9431 C.2     1  UNL1        0.2485
     29 O           5.5170    3.8292    0.4472 O.2     1  UNL1       -0.2702
     30 N           5.6181    1.9648    1.6511 N.am    1  UNL1       -0.3252
     31 O           0.7991    2.8299    2.4005 O.3     1  UNL1       -0.3731
     32 O           1.1341   -0.1714    2.9767 O.2     1  UNL1       -0.5073
     33 O          -1.8668   -3.9235    2.2126 O.3     1  UNL1       -0.5060
     34 CL         -5.2536   -0.3468   -0.9846 Cl      1  UNL1       -0.0832
     35 O          -3.2749    1.0032   -0.9108 O.3     1  UNL1       -0.3865
     36 H           2.2171    5.5511   -1.7772 H       1  UNL1        0.0778
     37 H           0.9318    5.4597   -3.0052 H       1  UNL1        0.0778
     38 H           0.5221    5.8358   -1.3143 H       1  UNL1        0.0778
     39 H           1.6579    1.9605   -2.4031 H       1  UNL1        0.0778
     40 H           1.6105    3.2601   -3.6184 H       1  UNL1        0.0778
     41 H           2.9034    3.2322   -2.3953 H       1  UNL1        0.0778
     42 H          -1.0623    2.4529   -0.9634 H       1  UNL1        0.0278
     43 H          -1.1440    2.6572    0.8058 H       1  UNL1        0.0278
     44 H          -5.5426   -3.0830   -0.2619 H       1  UNL1        0.0633
     45 H          -4.1317   -4.5866    1.0734 H       1  UNL1        0.0655
     46 H           4.4596    4.5017   -0.4402 H       1  UNL1        0.2919
     47 H           5.1523    1.2115    2.0466 H       1  UNL1        0.1453
     48 H           6.5770    2.0562    1.7651 H       1  UNL1        0.1453
     49 H           1.0374    2.6838    3.3262 H       1  UNL1        0.2113
     50 H           1.9235    0.3351    3.3235 H       1  UNL1        0.2918
     51 H          -1.2038   -4.4028    1.6971 H       1  UNL1        0.2922
     52 H          -3.1277    1.9454   -1.0708 H       1  UNL1        0.2103
     53 N           0.9910    3.8214   -1.6894 N.4     1  UNL1        0.2388
     54 H           0.0090    3.5769   -1.8632 H       1  UNL1        0.2035
@<TRIPOS>UNITY_ATOM_ATTR
53 1
charge 1
@<TRIPOS>BOND
     1     1    36    1
     2     1    37    1
     3     1    38    1
     4     1    53    1
     5     2    39    1
     6     2    40    1
     7     2    41    1
     8     2    53    1
     9     3     4    1
    10     3    26    1
    11     3     5    1
    12     3    53    1
    13     5     6    1
    14     5    22    1
    15     5     7    1
    16     7     8    1
    17     7    42    1
    18     7    43    1
    19     8     9    1
    20     8    20    1
    21     8    10    1
    22    10    11    1
    23    10    12    1
    24    10    35    1
    25    12    17   ar
    26    12    13   ar
    27    13    14   ar
    28    13    34    1
    29    14    15   ar
    30    14    44    1
    31    15    16   ar
    32    15    45    1
    33    16    17   ar
    34    16    33    1
    35    17    18    1
    36    18    19    2
    37    18    20    1
    38    20    21    2
    39    21    22    1
    40    21    32    1
    41    22    23    1
    42    22    31    1
    43    23    24    2
    44    23    25    1
    45    25    26    2
    46    25    28    1
    47    26    27    1
    48    27    46    1
    49    28    29    2
    50    28    30   am
    51    30    47    1
    52    30    48    1
    53    31    49    1
    54    32    50    1
    55    33    51    1
    56    35    52    1
    57    53    54    1
