@<TRIPOS>MOLECULE
ZINC03830783
 58 61 0 0 0
SMALL
GASTEIGER

@<TRIPOS>ATOM
      1 C          -0.7270    1.4744    3.7722 C.3     1  UNL1       -0.0653
      2 C          -0.0076    0.9945    2.5101 C.3     1  UNL1       -0.0554
      3 C          -0.7445    1.5145    1.2741 C.3     1  UNL1       -0.0432
      4 C          -0.0251    1.0346    0.0120 C.3     1  UNL1        0.0449
      5 C          -0.7508    1.5468   -1.2054 C.2     1  UNL1        0.3074
      6 O          -1.7418    2.2260   -1.0767 O.2     1  UNL1       -0.2508
      7 O          -0.2964    1.2484   -2.4327 O.3     1  UNL1       -0.4608
      8 C          -1.0438    1.7745   -3.5567 C.3     1  UNL1        0.1087
      9 H          -2.1027    1.8339   -3.3410 H       1  UNL1        0.0739
     10 C          -0.4807    3.1519   -3.9899 C.3     1  UNL1       -0.0149
     11 C          -0.3403    3.1044   -5.5371 C.3     1  UNL1       -0.0460
     12 C          -1.1691    1.8706   -5.9225 C.3     1  UNL1       -0.0288
     13 H          -2.2387    2.1544   -5.8090 H       1  UNL1        0.0310
     14 C          -0.8097    0.8809   -4.7963 C.3     1  UNL1        0.0081
     15 C          -1.6573   -0.3634   -4.8386 C.3     1  UNL1       -0.0434
     16 C          -2.0285   -0.7365   -6.2865 C.3     1  UNL1       -0.0453
     17 C          -0.9664   -0.2332   -7.2429 C.3     1  UNL1       -0.0125
     18 H           0.0098   -0.5747   -6.9080 H       1  UNL1        0.0352
     19 C          -0.9790    1.2992   -7.2841 C.3     1  UNL1       -0.0305
     20 H          -1.8577    1.5918   -7.8963 H       1  UNL1        0.0310
     21 C           0.2586    1.7431   -8.0534 C.3     1  UNL1       -0.0454
     22 C           0.0357    1.3806   -9.5249 C.3     1  UNL1       -0.0270
     23 C          -0.6303    0.0427   -9.7030 C.ar    1  UNL1       -0.0405
     24 C          -1.1020   -0.7288   -8.6551 C.ar    1  UNL1       -0.0406
     25 C          -1.6857   -1.9583   -8.8942 C.ar    1  UNL1       -0.0546
     26 C          -1.8176   -2.4329  -10.1837 C.ar    1  UNL1       -0.0199
     27 C          -1.3541   -1.6684  -11.2437 C.ar    1  UNL1        0.1171
     28 C          -0.7655   -0.4377  -11.0005 C.ar    1  UNL1       -0.0167
     29 O          -1.4802   -2.1197  -12.5193 O.3     1  UNL1       -0.5068
     30 C           0.6777    0.5225   -4.7910 C.3     1  UNL1       -0.0559
     31 H          -0.7419    2.5642    3.7898 H       1  UNL1        0.0230
     32 H          -1.7496    1.0971    3.7733 H       1  UNL1        0.0230
     33 H          -0.2021    1.1040    4.6527 H       1  UNL1        0.0230
     34 H           0.0072   -0.0953    2.4925 H       1  UNL1        0.0263
     35 H           1.0150    1.3719    2.5090 H       1  UNL1        0.0263
     36 H          -0.7593    2.6043    1.2917 H       1  UNL1        0.0270
     37 H          -1.7671    1.1371    1.2752 H       1  UNL1        0.0270
     38 H          -0.0102   -0.0552   -0.0056 H       1  UNL1        0.0377
     39 H           0.9975    1.4119    0.0109 H       1  UNL1        0.0377
     40 H          -1.1657    3.9468   -3.7006 H       1  UNL1        0.0301
     41 H           0.4957    3.3122   -3.5330 H       1  UNL1        0.0301
     42 H          -0.7750    4.0026   -5.9829 H       1  UNL1        0.0269
     43 H           0.6986    3.0041   -5.8354 H       1  UNL1        0.0269
     44 H          -1.1157   -1.1964   -4.3735 H       1  UNL1        0.0272
     45 H          -2.5766   -0.1990   -4.2609 H       1  UNL1        0.0272
     46 H          -2.1164   -1.8250   -6.3647 H       1  UNL1        0.0271
     47 H          -2.9960   -0.2935   -6.5413 H       1  UNL1        0.0271
     48 H           1.1410    1.2277   -7.6785 H       1  UNL1        0.0271
     49 H           0.3867    2.8213   -7.9578 H       1  UNL1        0.0271
     50 H           1.0022    1.3680  -10.0301 H       1  UNL1        0.0313
     51 H          -0.5881    2.1517   -9.9804 H       1  UNL1        0.0313
     52 H          -2.0366   -2.5644   -8.0707 H       1  UNL1        0.0622
     53 H          -2.2718   -3.3965  -10.3643 H       1  UNL1        0.0654
     54 H          -0.4038    0.1519  -11.8298 H       1  UNL1        0.0657
     55 H          -2.3053   -1.8571  -12.9497 H       1  UNL1        0.2921
     56 H           0.9409    0.0782   -3.8311 H       1  UNL1        0.0236
     57 H           0.8825   -0.1904   -5.5897 H       1  UNL1        0.0236
     58 H           1.2693    1.4243   -4.9484 H       1  UNL1        0.0236
@<TRIPOS>BOND
     1     1     2    1
     2     1    31    1
     3     1    32    1
     4     1    33    1
     5     2     3    1
     6     2    34    1
     7     2    35    1
     8     3     4    1
     9     3    36    1
    10     3    37    1
    11     4     5    1
    12     4    38    1
    13     4    39    1
    14     5     6    2
    15     5     7    1
    16     7     8    1
    17     8     9    1
    18     8    14    1
    19     8    10    1
    20    10    11    1
    21    10    40    1
    22    10    41    1
    23    11    12    1
    24    11    42    1
    25    11    43    1
    26    12    13    1
    27    12    19    1
    28    12    14    1
    29    14    15    1
    30    14    30    1
    31    15    16    1
    32    15    44    1
    33    15    45    1
    34    16    17    1
    35    16    46    1
    36    16    47    1
    37    17    18    1
    38    17    24    1
    39    17    19    1
    40    19    20    1
    41    19    21    1
    42    21    22    1
    43    21    48    1
    44    21    49    1
    45    22    23    1
    46    22    50    1
    47    22    51    1
    48    23    28   ar
    49    23    24   ar
    50    24    25   ar
    51    25    26   ar
    52    25    52    1
    53    26    27   ar
    54    26    53    1
    55    27    28   ar
    56    27    29    1
    57    28    54    1
    58    29    55    1
    59    30    56    1
    60    30    57    1
    61    30    58    1
