@<TRIPOS>MOLECULE
ZINC15848236
 53 57 0 0 0
SMALL
GASTEIGER

@<TRIPOS>ATOM
      1 C           0.1533    4.7839    1.8195 C.3     1  UNL1       -0.0031
      2 C           1.4589    4.3005    1.2427 C.2     1  UNL1        0.1621
      3 O           2.4820    4.4321    1.8706 O.2     1  UNL1       -0.2946
      4 C           1.4878    3.6537   -0.1165 C.3     1  UNL1        0.1288
      5 C           2.8918    3.7980   -0.7549 C.3     1  UNL1       -0.0162
      6 C           3.3464    2.3669   -1.1502 C.3     1  UNL1       -0.0460
      7 C           2.0192    1.5961   -1.2220 C.3     1  UNL1       -0.0259
      8 H           1.5017    1.9010   -2.1391 H       1  UNL1        0.0313
      9 C           1.2686    2.1423    0.0132 C.3     1  UNL1        0.0070
     10 C          -0.1663    1.6731   -0.0881 C.3     1  UNL1       -0.0440
     11 C          -0.1998    0.1461   -0.0574 C.3     1  UNL1       -0.0483
     12 C           0.7609   -0.5588   -0.9945 C.3     1  UNL1       -0.0247
     13 H           0.9673   -1.5382   -0.4831 H       1  UNL1        0.0315
     14 C           2.1216    0.0907   -1.1459 C.3     1  UNL1       -0.0142
     15 H           2.7288   -0.1745   -0.2558 H       1  UNL1        0.0349
     16 C           2.9060   -0.4080   -2.3273 C.2     1  UNL1       -0.0617
     17 C           2.4341   -1.2345   -3.2470 C.2     1  UNL1        0.0412
     18 C           1.0611   -1.7526   -3.1362 C.2     1  UNL1       -0.0196
     19 C           0.7639   -2.8944   -3.7862 C.2     1  UNL1       -0.0138
     20 C          -0.4941   -3.5063   -3.7419 C.2     1  UNL1        0.1598
     21 O          -0.7553   -4.4278   -4.4877 O.2     1  UNL1       -0.2924
     22 C          -1.5210   -3.0070   -2.7621 C.3     1  UNL1        0.0255
     23 H          -1.9638   -3.7857   -2.3176 H       1  UNL1        0.0384
     24 C          -2.2887   -1.7294   -3.1041 C.3     1  UNL1       -0.0386
     25 C          -1.2031   -1.7047   -2.0313 C.3     1  UNL1       -0.0208
     26 H          -1.5373   -1.6724   -0.9903 H       1  UNL1        0.0316
     27 C           0.0937   -0.9640   -2.3026 C.3     1  UNL1        0.0013
     28 C          -0.2667    0.2913   -3.0971 C.3     1  UNL1       -0.0549
     29 CL          3.4337   -1.7071   -4.5852 Cl      1  UNL1       -0.0836
     30 C           1.8959    1.6665    1.3219 C.3     1  UNL1       -0.0563
     31 O           0.4941    4.2277   -0.9650 O.3     1  UNL1       -0.3805
     32 H          -0.2717    4.0473    2.3456 H       1  UNL1        0.0307
     33 H           0.3382    5.6369    2.4725 H       1  UNL1        0.0307
     34 H          -0.5128    5.0834    1.0103 H       1  UNL1        0.0307
     35 H           3.5881    4.2273   -0.0348 H       1  UNL1        0.0297
     36 H           2.8352    4.4303   -1.6417 H       1  UNL1        0.0297
     37 H           4.0111    1.9412   -0.4047 H       1  UNL1        0.0269
     38 H           3.8306    2.3762   -2.1293 H       1  UNL1        0.0269
     39 H          -0.6187    2.0486   -1.0077 H       1  UNL1        0.0272
     40 H          -0.7387    2.0689    0.7609 H       1  UNL1        0.0272
     41 H          -0.0106   -0.2004    0.9656 H       1  UNL1        0.0269
     42 H          -1.2255   -0.1656   -0.2958 H       1  UNL1        0.0269
     43 H           3.9257   -0.0595   -2.4351 H       1  UNL1        0.0589
     44 H           1.5305   -3.3514   -4.3952 H       1  UNL1        0.0656
     45 H          -3.3282   -1.6701   -2.7680 H       1  UNL1        0.0275
     46 H          -2.0977   -1.2918   -4.0809 H       1  UNL1        0.0275
     47 H           0.6392    0.8588   -3.3104 H       1  UNL1        0.0238
     48 H          -0.7443    0.0038   -4.0338 H       1  UNL1        0.0238
     49 H          -0.9518    0.9063   -2.5137 H       1  UNL1        0.0238
     50 H           1.9298    0.5770    1.3335 H       1  UNL1        0.0236
     51 H           2.9080    2.0624    1.4048 H       1  UNL1        0.0236
     52 H           1.2974    2.0203    2.1614 H       1  UNL1        0.0236
     53 H           0.6106    5.1747   -1.1223 H       1  UNL1        0.2108
@<TRIPOS>BOND
     1     1     2    1
     2     1    32    1
     3     1    33    1
     4     1    34    1
     5     2     3    2
     6     2     4    1
     7     4     9    1
     8     4     5    1
     9     4    31    1
    10     5     6    1
    11     5    35    1
    12     5    36    1
    13     6     7    1
    14     6    37    1
    15     6    38    1
    16     7     8    1
    17     7    14    1
    18     7     9    1
    19     9    10    1
    20     9    30    1
    21    10    11    1
    22    10    39    1
    23    10    40    1
    24    11    12    1
    25    11    41    1
    26    11    42    1
    27    12    13    1
    28    12    27    1
    29    12    14    1
    30    14    15    1
    31    14    16    1
    32    16    17    2
    33    16    43    1
    34    17    18    1
    35    17    29    1
    36    18    27    1
    37    18    19    2
    38    19    20    1
    39    19    44    1
    40    20    21    2
    41    20    22    1
    42    22    23    1
    43    22    25    1
    44    22    24    1
    45    24    25    1
    46    24    45    1
    47    24    46    1
    48    25    26    1
    49    25    27    1
    50    27    28    1
    51    28    47    1
    52    28    48    1
    53    28    49    1
    54    30    50    1
    55    30    51    1
    56    30    52    1
    57    31    53    1
