@<TRIPOS>MOLECULE
ZINC00968266
 51 53 0 0 0
SMALL
GASTEIGER

@<TRIPOS>ATOM
      1 C          -0.0559    4.2672    0.0251 C.ar    1  UNL1       -0.0617
      2 C           1.1505    3.5924    0.0100 C.ar    1  UNL1       -0.0614
      3 C           1.1693    2.2102    0.0028 C.ar    1  UNL1       -0.0555
      4 C          -0.0184    1.5028    0.0103 C.ar    1  UNL1       -0.0117
      5 C          -1.2248    2.1776    0.0197 C.ar    1  UNL1       -0.0555
      6 C          -1.2435    3.5598    0.0322 C.ar    1  UNL1       -0.0614
      7 C           0.0021   -0.0041    0.0020 C.3     1  UNL1        0.1160
      8 C          -1.2470   -0.5271   -0.7102 C.3     1  UNL1       -0.0108
      9 C          -1.2897   -2.0533   -0.6100 C.3     1  UNL1       -0.0093
     10 C          -2.5387   -2.5763   -1.3222 C.3     1  UNL1       -0.0318
     11 C          -1.4678   -4.6491   -1.9682 C.3     1  UNL1       -0.0319
     12 C          -1.4570   -6.1603   -1.7271 C.3     1  UNL1       -0.0123
     13 C          -2.7897   -6.7556   -2.1899 C.3     1  UNL1       -0.0434
     14 C          -3.9341   -6.0719   -1.4366 C.3     1  UNL1       -0.0123
     15 C          -3.8730   -4.5632   -1.6861 C.3     1  UNL1       -0.0319
     16 C           0.0225   -0.5140    1.4200 C.ar    1  UNL1       -0.0117
     17 C          -1.1652   -0.7588    2.0836 C.ar    1  UNL1       -0.0555
     18 C          -1.1465   -1.2311    3.3826 C.ar    1  UNL1       -0.0614
     19 C           0.0598   -1.4491    4.0215 C.ar    1  UNL1       -0.0617
     20 C           1.2475   -1.1989    3.3598 C.ar    1  UNL1       -0.0614
     21 C           1.2288   -0.7315    2.0590 C.ar    1  UNL1       -0.0555
     22 O           1.1687   -0.4608   -0.6853 O.3     1  UNL1       -0.3793
     23 H          -0.0705    5.3471    0.0311 H       1  UNL1        0.0618
     24 H           2.0784    4.1450    0.0041 H       1  UNL1        0.0618
     25 H           2.1118    1.6830   -0.0091 H       1  UNL1        0.0621
     26 H          -2.1527    1.6249    0.0211 H       1  UNL1        0.0621
     27 H          -2.1860    4.0870    0.0437 H       1  UNL1        0.0618
     28 H          -2.1361   -0.1071   -0.2399 H       1  UNL1        0.0301
     29 H          -1.2173   -0.2326   -1.7592 H       1  UNL1        0.0301
     30 H          -0.4006   -2.4733   -1.0803 H       1  UNL1        0.0318
     31 H          -1.3194   -2.3478    0.4390 H       1  UNL1        0.0318
     32 H          -3.4278   -2.1563   -0.8519 H       1  UNL1        0.0814
     33 H          -2.5090   -2.2818   -2.3712 H       1  UNL1        0.0814
     34 H          -1.5913   -4.4520   -3.0331 H       1  UNL1        0.0814
     35 H          -0.5258   -4.2201   -1.6265 H       1  UNL1        0.0814
     36 H          -1.3196   -6.3582   -0.6641 H       1  UNL1        0.0317
     37 H          -0.6410   -6.6134   -2.2901 H       1  UNL1        0.0317
     38 H          -2.8033   -7.8251   -1.9802 H       1  UNL1        0.0269
     39 H          -2.9100   -6.5928   -3.2609 H       1  UNL1        0.0269
     40 H          -3.8357   -6.2684   -0.3690 H       1  UNL1        0.0317
     41 H          -4.8879   -6.4613   -1.7925 H       1  UNL1        0.0317
     42 H          -4.6780   -4.0718   -1.1396 H       1  UNL1        0.0814
     43 H          -3.9853   -4.3668   -2.7524 H       1  UNL1        0.0814
     44 H          -2.1077   -0.5846    1.5859 H       1  UNL1        0.0621
     45 H          -2.0744   -1.4262    3.8997 H       1  UNL1        0.0618
     46 H           0.0744   -1.8146    5.0376 H       1  UNL1        0.0618
     47 H           2.1900   -1.3689    3.8590 H       1  UNL1        0.0618
     48 H           2.1567   -0.5361    1.5420 H       1  UNL1        0.0621
     49 H           1.2222   -0.1697   -1.6058 H       1  UNL1        0.2111
     50 N          -2.5764   -4.0480   -1.1969 N.4     1  UNL1        0.2352
     51 H          -2.4694   -4.3012   -0.2076 H       1  UNL1        0.2033
@<TRIPOS>UNITY_ATOM_ATTR
50 1
charge 1
@<TRIPOS>BOND
     1     1     6   ar
     2     1     2   ar
     3     1    23    1
     4     2     3   ar
     5     2    24    1
     6     3     4   ar
     7     3    25    1
     8     4     5   ar
     9     4     7    1
    10     5     6   ar
    11     5    26    1
    12     6    27    1
    13     7     8    1
    14     7    16    1
    15     7    22    1
    16     8     9    1
    17     8    28    1
    18     8    29    1
    19     9    10    1
    20     9    30    1
    21     9    31    1
    22    10    32    1
    23    10    33    1
    24    10    50    1
    25    11    12    1
    26    11    34    1
    27    11    35    1
    28    11    50    1
    29    12    13    1
    30    12    36    1
    31    12    37    1
    32    13    14    1
    33    13    38    1
    34    13    39    1
    35    14    15    1
    36    14    40    1
    37    14    41    1
    38    15    42    1
    39    15    43    1
    40    15    50    1
    41    16    21   ar
    42    16    17   ar
    43    17    18   ar
    44    17    44    1
    45    18    19   ar
    46    18    45    1
    47    19    20   ar
    48    19    46    1
    49    20    21   ar
    50    20    47    1
    51    21    48    1
    52    22    49    1
    53    50    51    1
