@<TRIPOS>MOLECULE
ZINC03830667
 53 56 0 0 0
SMALL
GASTEIGER

@<TRIPOS>ATOM
      1 C           0.3268    4.8995    3.4492 C.3     1  UNL1       -0.0646
      2 C           1.1476    4.1046    2.4317 C.3     1  UNL1       -0.0461
      3 C           0.6629    4.4310    1.0199 C.3     1  UNL1        0.0173
      4 C          -0.8511    4.4546    0.9766 C.3     1  UNL1       -0.0222
      5 C          -1.3009    2.9912    1.0546 C.2     1  UNL1       -0.0720
      6 C          -2.0531    2.6000    2.0433 C.2     1  UNL1       -0.0991
      7 C          -0.8043    2.0861   -0.0354 C.3     1  UNL1       -0.0105
      8 H          -1.0715    2.5519   -0.9949 H       1  UNL1        0.0354
      9 C           0.7403    2.0621    0.0241 C.3     1  UNL1       -0.0302
     10 H           1.0918    1.5072   -0.8719 H       1  UNL1        0.0310
     11 C           1.2159    3.4832   -0.0605 C.3     1  UNL1       -0.0280
     12 H           0.8950    3.8835   -1.0587 H       1  UNL1        0.0310
     13 C           2.7256    3.7453    0.0446 C.3     1  UNL1       -0.0458
     14 C           2.7828    5.2926    0.2005 C.3     1  UNL1       -0.0118
     15 C           1.3565    5.7458    0.6082 C.3     1  UNL1        0.1322
     16 C           1.4141    6.6619    1.7543 C.1     1  UNL1       -0.0704
     17 C           1.4602    7.3943    2.6707 C.1     1  UNL1       -0.1163
     18 O           0.6798    6.3402   -0.4932 O.3     1  UNL1       -0.3760
     19 C           1.2093    1.3097    1.2605 C.3     1  UNL1       -0.0457
     20 C           0.7450   -0.1554    1.1835 C.3     1  UNL1       -0.0312
     21 C          -0.7725   -0.1290    1.0830 C.2     1  UNL1       -0.0698
     22 C          -1.4811   -0.7878    1.9489 C.2     1  UNL1       -0.0845
     23 C          -2.9847   -0.7954    1.8961 C.3     1  UNL1       -0.0345
     24 C          -3.4211   -0.6816    0.4329 C.3     1  UNL1       -0.0491
     25 C          -2.8602    0.6107   -0.1598 C.3     1  UNL1       -0.0457
     26 C          -1.3568    0.6796   -0.0370 C.3     1  UNL1       -0.0131
     27 H          -0.9645    0.2061   -0.9632 H       1  UNL1        0.0351
     28 H          -0.6613    4.4503    3.5494 H       1  UNL1        0.0230
     29 H           0.8322    4.8846    4.4149 H       1  UNL1        0.0230
     30 H           0.2247    5.9298    3.1084 H       1  UNL1        0.0230
     31 H           1.0256    3.0380    2.6202 H       1  UNL1        0.0269
     32 H           2.2001    4.3720    2.5255 H       1  UNL1        0.0269
     33 H          -1.2524    5.0020    1.8284 H       1  UNL1        0.0317
     34 H          -1.2052    4.8912    0.0443 H       1  UNL1        0.0317
     35 H          -2.3573    1.5661    2.1141 H       1  UNL1        0.0534
     36 H          -2.3726    3.3094    2.7923 H       1  UNL1        0.0534
     37 H           3.1660    3.2454    0.8994 H       1  UNL1        0.0269
     38 H           3.2282    3.4422   -0.8766 H       1  UNL1        0.0269
     39 H           3.0610    5.7503   -0.7475 H       1  UNL1        0.0303
     40 H           3.4974    5.5631    0.9756 H       1  UNL1        0.0303
     41 H           1.5014    8.0494    3.4902 H       1  UNL1        0.1229
     42 H           1.0730    7.1706   -0.7947 H       1  UNL1        0.2114
     43 H           0.7593    1.7193    2.1639 H       1  UNL1        0.0271
     44 H           2.2934    1.3347    1.3342 H       1  UNL1        0.0271
     45 H           1.0509   -0.6816    2.0836 H       1  UNL1        0.0310
     46 H           1.1693   -0.6254    0.2998 H       1  UNL1        0.0310
     47 H          -0.9847   -1.3429    2.7267 H       1  UNL1        0.0572
     48 H          -3.3747    0.0472    2.4641 H       1  UNL1        0.0307
     49 H          -3.3579   -1.7272    2.3194 H       1  UNL1        0.0307
     50 H          -4.5110   -0.6643    0.3778 H       1  UNL1        0.0268
     51 H          -3.0440   -1.5364   -0.1298 H       1  UNL1        0.0268
     52 H          -3.3399    1.4640    0.3065 H       1  UNL1        0.0271
     53 H          -3.1220    0.6320   -1.2289 H       1  UNL1        0.0271
@<TRIPOS>BOND
     1     1     2    1
     2     1    28    1
     3     1    29    1
     4     1    30    1
     5     2     3    1
     6     2    31    1
     7     2    32    1
     8     3    11    1
     9     3    15    1
    10     3     4    1
    11     4     5    1
    12     4    33    1
    13     4    34    1
    14     5     6    2
    15     5     7    1
    16     6    35    1
    17     6    36    1
    18     7     8    1
    19     7    26    1
    20     7     9    1
    21     9    10    1
    22     9    11    1
    23     9    19    1
    24    11    12    1
    25    11    13    1
    26    13    14    1
    27    13    37    1
    28    13    38    1
    29    14    15    1
    30    14    39    1
    31    14    40    1
    32    15    16    1
    33    15    18    1
    34    16    17    3
    35    17    41    1
    36    18    42    1
    37    19    20    1
    38    19    43    1
    39    19    44    1
    40    20    21    1
    41    20    45    1
    42    20    46    1
    43    21    26    1
    44    21    22    2
    45    22    23    1
    46    22    47    1
    47    23    24    1
    48    23    48    1
    49    23    49    1
    50    24    25    1
    51    24    50    1
    52    24    51    1
    53    25    26    1
    54    25    52    1
    55    25    53    1
    56    26    27    1
