@<TRIPOS>MOLECULE
ZINC03831401
 57 60 0 0 0
SMALL
GASTEIGER

@<TRIPOS>ATOM
      1 C           0.9994   -3.2814   -1.6554 C.3     1  UNL1       -0.0239
      2 C           0.8913   -2.1084   -0.7154 C.ar    1  UNL1        0.0215
      3 C           0.7270   -2.1869    0.6175 C.ar    1  UNL1       -0.0334
      4 C           0.6746   -0.8082    1.1147 C.ar    1  UNL1       -0.0038
      5 C           0.8141   -0.0011    0.0198 C.ar    1  UNL1        0.0281
      6 N           0.9382   -0.7924   -1.0788 N.ar    1  UNL1       -0.3171
      7 C           1.0947   -0.3263   -2.3912 C.ar    1  UNL1        0.0465
      8 C           0.0717    0.3855   -3.0032 C.ar    1  UNL1       -0.0378
      9 C           0.2314    0.8489   -4.2945 C.ar    1  UNL1       -0.0598
     10 C           1.4038    0.5940   -4.9820 C.ar    1  UNL1       -0.0616
     11 C           2.4222   -0.1196   -4.3772 C.ar    1  UNL1       -0.0598
     12 C           2.2709   -0.5803   -3.0839 C.ar    1  UNL1       -0.0378
     13 C           0.8225    1.5058    0.0285 C.3     1  UNL1       -0.0233
     14 C           0.5051   -0.3791    2.5124 C.2     1  UNL1       -0.0467
     15 C           0.3797   -1.2974    3.4875 C.2     1  UNL1        0.0103
     16 C           0.3257   -0.8732    4.8946 C.ar    1  UNL1        0.2080
     17 C           0.3148    0.5015    5.2000 C.ar    1  UNL1        0.0105
     18 C           0.2645    0.9055    6.4987 C.ar    1  UNL1       -0.0420
     19 C           0.2246   -0.0811    7.5068 C.ar    1  UNL1        0.0482
     20 C           0.1715    0.2709    8.8630 C.ar    1  UNL1       -0.0272
     21 C           0.1331   -0.7199    9.8209 C.ar    1  UNL1        0.0302
     22 C           0.1468   -2.0695    9.4498 C.ar    1  UNL1       -0.0344
     23 C           0.1984   -2.4344    8.1413 C.ar    1  UNL1        0.0121
     24 C           0.2381   -1.4496    7.1372 C.ar    1  UNL1        0.2152
     25 N           0.2830   -1.7911    5.8462 N.ar    1  UNL1       -0.1936
     26 C           0.2904   -3.2090    5.4778 C.3     1  UNL1        0.1415
     27 N           0.0806   -0.3740   11.1731 N.pl3   1  UNL1       -0.3360
     28 C           0.0666    1.0366   11.5684 C.3     1  UNL1        0.0004
     29 C           0.0397   -1.4219   12.1961 C.3     1  UNL1        0.0004
     30 H           0.0055   -3.5581   -2.0070 H       1  UNL1        0.0292
     31 H           1.6230   -3.0084   -2.5067 H       1  UNL1        0.0292
     32 H           1.4480   -4.1260   -1.1324 H       1  UNL1        0.0292
     33 H           0.6490   -3.0889    1.2064 H       1  UNL1        0.0641
     34 H          -0.8462    0.5804   -2.4686 H       1  UNL1        0.0638
     35 H          -0.5622    1.4064   -4.7696 H       1  UNL1        0.0618
     36 H           1.5244    0.9532   -5.9934 H       1  UNL1        0.0618
     37 H           3.3367   -0.3171   -4.9166 H       1  UNL1        0.0618
     38 H           3.0667   -1.1372   -2.6119 H       1  UNL1        0.0638
     39 H           1.8445    1.8628    0.1555 H       1  UNL1        0.0292
     40 H           0.4227    1.8769   -0.9152 H       1  UNL1        0.0292
     41 H           0.2063    1.8678    0.8515 H       1  UNL1        0.0292
     42 H           0.4815    0.6730    2.7552 H       1  UNL1        0.0626
     43 H           0.3185   -2.3462    3.2369 H       1  UNL1        0.0683
     44 H           0.3466    1.2330    4.4061 H       1  UNL1        0.0683
     45 H           0.2550    1.9554    6.7516 H       1  UNL1        0.0628
     46 H           0.1604    1.3106    9.1550 H       1  UNL1        0.0644
     47 H           0.1162   -2.8319   10.2141 H       1  UNL1        0.0638
     48 H           0.2086   -3.4804    7.8725 H       1  UNL1        0.0684
     49 H           1.3199   -3.5532    5.3784 H       1  UNL1        0.0993
     50 H          -0.2131   -3.7882    6.2519 H       1  UNL1        0.0993
     51 H          -0.2300   -3.3407    4.5292 H       1  UNL1        0.0993
     52 H          -0.9638    1.3874   11.6263 H       1  UNL1        0.0428
     53 H           0.5429    1.1456   12.5427 H       1  UNL1        0.0428
     54 H           0.6102    1.6262   10.8302 H       1  UNL1        0.0428
     55 H           0.9328   -2.0417   12.1173 H       1  UNL1        0.0428
     56 H           0.0015   -0.9635   13.1843 H       1  UNL1        0.0428
     57 H          -0.8458   -2.0400   12.0478 H       1  UNL1        0.0428
@<TRIPOS>UNITY_ATOM_ATTR
25 1
charge 1
@<TRIPOS>BOND
     1     1     2    1
     2     1    30    1
     3     1    31    1
     4     1    32    1
     5     2     6   ar
     6     2     3   ar
     7     3     4   ar
     8     3    33    1
     9     4     5   ar
    10     4    14    1
    11     5     6   ar
    12     5    13    1
    13     6     7    1
    14     7    12   ar
    15     7     8   ar
    16     8     9   ar
    17     8    34    1
    18     9    10   ar
    19     9    35    1
    20    10    11   ar
    21    10    36    1
    22    11    12   ar
    23    11    37    1
    24    12    38    1
    25    13    39    1
    26    13    40    1
    27    13    41    1
    28    14    15    2
    29    14    42    1
    30    15    16    1
    31    15    43    1
    32    16    25   ar
    33    16    17   ar
    34    17    18   ar
    35    17    44    1
    36    18    19   ar
    37    18    45    1
    38    19    24   ar
    39    19    20   ar
    40    20    21   ar
    41    20    46    1
    42    21    22   ar
    43    21    27    1
    44    22    23   ar
    45    22    47    1
    46    23    24   ar
    47    23    48    1
    48    24    25   ar
    49    25    26    1
    50    26    49    1
    51    26    50    1
    52    26    51    1
    53    27    28    1
    54    27    29    1
    55    28    52    1
    56    28    53    1
    57    28    54    1
    58    29    55    1
    59    29    56    1
    60    29    57    1
