@<TRIPOS>MOLECULE
ZINC01530701
 33 32 0 0 0
SMALL
GASTEIGER

@<TRIPOS>ATOM
      1 C          -1.5343    5.5322    3.7872 C.3     1  UNL1       -0.0653
      2 C          -2.3164    5.1173    2.5394 C.3     1  UNL1       -0.0552
      3 C          -1.5461    5.5458    1.2888 C.3     1  UNL1       -0.0416
      4 C          -2.3282    5.1309    0.0410 C.3     1  UNL1        0.0363
      5 C          -1.5580    5.5594   -1.2096 C.3     1  UNL1       -0.0533
      6 C          -2.5081    3.6115    0.0336 C.3     1  UNL1        0.1025
      7 O          -1.2056    2.9700    0.0239 O.3     1  UNL1       -0.4499
      8 C          -1.1873    1.6238    0.0165 C.2     1  UNL1        0.3977
      9 O          -2.2313    1.0020    0.0181 O.2     1  UNL1       -0.2267
     10 N          -0.0111    0.9658    0.0074 N.am    1  UNL1       -0.2950
     11 C          -3.7008    5.8069    0.0512 C.3     1  UNL1        0.1025
     12 O          -3.5301    7.2488    0.0582 O.3     1  UNL1       -0.4499
     13 C          -4.6495    7.9968    0.0676 C.2     1  UNL1        0.3977
     14 O          -5.7393    7.4594    0.0698 O.2     1  UNL1       -0.2267
     15 N          -4.5613    9.3417    0.0745 N.am    1  UNL1       -0.2950
     16 H          -2.0830    5.2270    4.6782 H       1  UNL1        0.0230
     17 H          -0.5565    5.0506    3.7800 H       1  UNL1        0.0230
     18 H          -1.4061    6.6147    3.7925 H       1  UNL1        0.0230
     19 H          -3.2942    5.5989    2.5467 H       1  UNL1        0.0263
     20 H          -2.4445    4.0349    2.5341 H       1  UNL1        0.0263
     21 H          -0.5683    5.0642    1.2815 H       1  UNL1        0.0273
     22 H          -1.4180    6.6282    1.2941 H       1  UNL1        0.0273
     23 H          -2.1152    5.2638   -2.0986 H       1  UNL1        0.0237
     24 H          -1.4298    6.6418   -1.2043 H       1  UNL1        0.0237
     25 H          -0.5802    5.0778   -1.2169 H       1  UNL1        0.0237
     26 H          -3.0653    3.3160   -0.8554 H       1  UNL1        0.0704
     27 H          -3.0569    3.3063    0.9245 H       1  UNL1        0.0704
     28 H           0.0021   -0.0041    0.0020 H       1  UNL1        0.1482
     29 H           0.8223    1.4622    0.0021 H       1  UNL1        0.1482
     30 H          -4.2580    5.5113   -0.8378 H       1  UNL1        0.0704
     31 H          -4.2495    5.5017    0.9421 H       1  UNL1        0.0704
     32 H          -3.6913    9.7707    0.0727 H       1  UNL1        0.1482
     33 H          -5.3678    9.8806    0.0812 H       1  UNL1        0.1482
@<TRIPOS>BOND
     1     1     2    1
     2     1    16    1
     3     1    17    1
     4     1    18    1
     5     2     3    1
     6     2    19    1
     7     2    20    1
     8     3     4    1
     9     3    21    1
    10     3    22    1
    11     4     5    1
    12     4     6    1
    13     4    11    1
    14     5    23    1
    15     5    24    1
    16     5    25    1
    17     6     7    1
    18     6    26    1
    19     6    27    1
    20     7     8    1
    21     8     9    2
    22     8    10   am
    23    10    28    1
    24    10    29    1
    25    11    12    1
    26    11    30    1
    27    11    31    1
    28    12    13    1
    29    13    14    2
    30    13    15   am
    31    15    32    1
    32    15    33    1
