@<TRIPOS>MOLECULE
E:\PythonProject\protein_automation\processed_pdbs\4GT3\4GT3_cleaned_ligands\GOL_A406.pdb
 14 13 0 0 0
SMALL
GASTEIGER

@<TRIPOS>ATOM
      1 C           0.8549    0.1886    0.0698 C.3     1  UNL1        0.0723
      2 O           0.2552   -0.6173   -0.9452 O.3     1  UNL1       -0.3924
      3 C           2.3691    0.0562    0.0156 C.3     1  UNL1        0.1012
      4 O           2.6860   -1.3464    0.1097 O.3     1  UNL1       -0.3873
      5 C           2.9813    0.6381   -1.2580 C.3     1  UNL1        0.0723
      6 O           4.3924    0.4426   -1.2424 O.3     1  UNL1       -0.3924
      7 H           0.4679   -0.1477    1.0290 H       1  UNL1        0.0583
      8 H           0.5492    1.2256   -0.0888 H       1  UNL1        0.0583
      9 H           0.5922   -1.5188   -0.7735 H       1  UNL1        0.2095
     10 H           2.8247    0.5365    0.8949 H       1  UNL1        0.0639
     11 H           3.3853   -1.5199   -0.5555 H       1  UNL1        0.2100
     12 H           2.7675    1.7092   -1.3599 H       1  UNL1        0.0583
     13 H           2.6005    0.1212   -2.1486 H       1  UNL1        0.0583
     14 H           4.7448    0.8929   -0.4497 H       1  UNL1        0.2095
@<TRIPOS>BOND
     1     2     1    1
     2     1     3    1
     3     3     4    1
     4     3     5    1
     5     5     6    1
     6     1     7    1
     7     1     8    1
     8     2     9    1
     9     3    10    1
    10     4    11    1
    11     5    12    1
    12     5    13    1
    13     6    14    1
