@<TRIPOS>MOLECULE
E:\PythonProject\protein_automation\processed_pdbs\4GT3\4GT3_cleaned_ligands\GOL_A405.pdb
 14 13 0 0 0
SMALL
GASTEIGER

@<TRIPOS>ATOM
      1 C           1.0912   -0.0473    0.0779 C.3     1  UNL1        0.0723
      2 O           2.5073   -0.1077    0.1669 O.3     1  UNL1       -0.3924
      3 C           0.6208    0.8710   -1.0581 C.3     1  UNL1        0.1012
      4 O          -0.8114    0.9072   -1.0871 O.3     1  UNL1       -0.3873
      5 C           1.1285    0.4316   -2.4332 C.3     1  UNL1        0.0723
      6 O           0.6052   -0.8580   -2.7594 O.3     1  UNL1       -0.3924
      7 H           0.6907   -1.0618   -0.0299 H       1  UNL1        0.0583
      8 H           0.7080    0.3320    1.0324 H       1  UNL1        0.0583
      9 H           2.7978   -0.8299   -0.4185 H       1  UNL1        0.2095
     10 H           0.9792    1.8890   -0.8690 H       1  UNL1        0.0639
     11 H          -1.1087   -0.0152   -1.1989 H       1  UNL1        0.2100
     12 H           0.7999    1.1327   -3.2081 H       1  UNL1        0.0583
     13 H           2.2213    0.3786   -2.4616 H       1  UNL1        0.0583
     14 H          -0.2012   -0.7028   -3.2841 H       1  UNL1        0.2095
@<TRIPOS>BOND
     1     6     5    1
     2     5     3    1
     3     3     4    1
     4     3     1    1
     5     2     1    1
     6     1     7    1
     7     1     8    1
     8     2     9    1
     9     3    10    1
    10     4    11    1
    11     5    12    1
    12     5    13    1
    13     6    14    1
