@<TRIPOS>MOLECULE
E:\PythonProject\protein_automation\processed_pdbs\1GPK\1GPK_cleaned_ligands\NAG_A1536.pdb
 29 29 0 0 0
SMALL
GASTEIGER

@<TRIPOS>ATOM
      1 C          -1.8525   -0.7351    0.4030 C.3     1  UNL1        0.0691
      2 C          -0.6098   -1.5261   -0.0168 C.3     1  UNL1        0.0748
      3 C           0.6498   -0.6990    0.3070 C.3     1  UNL1        0.1039
      4 C           0.5398    0.7132   -0.3100 C.3     1  UNL1        0.1110
      5 C          -0.8109    1.3730    0.0305 C.3     1  UNL1        0.1100
      6 C          -1.0219    2.6733   -0.7590 C.3     1  UNL1        0.0729
      7 C          -0.4995   -3.1703    1.8645 C.2     1  UNL1        0.2103
      8 C          -0.4086   -4.6370    2.1855 C.3     1  UNL1        0.0122
      9 N          -0.5863   -2.8875    0.5241 N.am    1  UNL1       -0.3079
     10 O           1.8201   -1.3787   -0.1822 O.3     1  UNL1       -0.3872
     11 O           1.6331    1.5314    0.1243 O.3     1  UNL1       -0.3865
     12 O          -1.9100    0.5054   -0.3055 O.3     1  UNL1       -0.3697
     13 O          -1.1075    2.3987   -2.1610 O.3     1  UNL1       -0.3924
     14 O          -0.5170   -2.3077    2.7352 O.2     1  UNL1       -0.2761
     15 H          -2.7567   -1.2993    0.1519 H       1  UNL1        0.0579
     16 H          -1.8828   -0.5383    1.4806 H       1  UNL1        0.0579
     17 H          -0.6363   -1.6625   -1.1068 H       1  UNL1        0.0547
     18 H           0.7904   -0.6075    1.3900 H       1  UNL1        0.0639
     19 H           0.6404    0.6198   -1.3971 H       1  UNL1        0.0646
     20 H          -0.8550    1.6166    1.0996 H       1  UNL1        0.0646
     21 H          -1.9673    3.1414   -0.4720 H       1  UNL1        0.0584
     22 H          -0.2132    3.3906   -0.5928 H       1  UNL1        0.0584
     23 H          -0.4646   -5.2558    1.2854 H       1  UNL1        0.0322
     24 H          -1.2403   -4.9084    2.8407 H       1  UNL1        0.0322
     25 H           0.5406   -4.8360    2.6872 H       1  UNL1        0.0322
     26 H          -0.4756   -3.6422   -0.1408 H       1  UNL1        0.1491
     27 H           2.0900   -0.9637   -1.0206 H       1  UNL1        0.2100
     28 H           1.7961    1.3602    1.0695 H       1  UNL1        0.2100
     29 H          -1.7954    1.7116   -2.2479 H       1  UNL1        0.2095
@<TRIPOS>BOND
     1    13     6    1
     2     6     5    1
     3    12     5    1
     4    12     1    1
     5     5     4    1
     6     1     2    1
     7    10     3    1
     8     4     3    1
     9     4    11    1
    10     3     2    1
    11     9     7   am
    12     7     8    1
    13     7    14    2
    14     2     9    1
    15     1    15    1
    16     1    16    1
    17     2    17    1
    18     3    18    1
    19     4    19    1
    20     5    20    1
    21     6    21    1
    22     6    22    1
    23     8    23    1
    24     8    24    1
    25     8    25    1
    26     9    26    1
    27    10    27    1
    28    11    28    1
    29    13    29    1
