@<TRIPOS>MOLECULE
E:\PythonProject\protein_automation\processed_pdbs\1GPK\1GPK_cleaned_ligands\NAG_B1.pdb
 29 29 0 0 0
SMALL
GASTEIGER

@<TRIPOS>ATOM
      1 C          -1.8178   -0.7858    0.4174 C.3     1  UNL1        0.0691
      2 C          -0.5641   -1.5426   -0.0237 C.3     1  UNL1        0.0748
      3 C           0.6739   -0.6864    0.3143 C.3     1  UNL1        0.1039
      4 C           0.5390    0.7099   -0.3212 C.3     1  UNL1        0.1110
      5 C          -0.8251    1.3458    0.0169 C.3     1  UNL1        0.1100
      6 C          -1.0319    2.6421   -0.7856 C.3     1  UNL1        0.0729
      7 C           0.1440   -3.8990   -0.1194 C.2     1  UNL1        0.2103
      8 C           0.1712   -5.2177    0.6045 C.3     1  UNL1        0.0122
      9 N          -0.4934   -2.8812    0.5561 N.am    1  UNL1       -0.3079
     10 O           1.8914   -1.2993   -0.1238 O.3     1  UNL1       -0.3872
     11 O           1.5958    1.5877    0.0989 O.3     1  UNL1       -0.3865
     12 O          -1.9129    0.4597   -0.2721 O.3     1  UNL1       -0.3697
     13 O          -0.0652    3.6386   -0.4731 O.3     1  UNL1       -0.3924
     14 O           0.6357   -3.7506   -1.2387 O.2     1  UNL1       -0.2761
     15 H          -2.7134   -1.3679    0.1766 H       1  UNL1        0.0579
     16 H          -1.8279   -0.6117    1.5010 H       1  UNL1        0.0579
     17 H          -0.6016   -1.6590   -1.1154 H       1  UNL1        0.0547
     18 H           0.7727   -0.5871    1.4021 H       1  UNL1        0.0639
     19 H           0.6414    0.6047   -1.4081 H       1  UNL1        0.0646
     20 H          -0.8465    1.6051    1.0840 H       1  UNL1        0.0646
     21 H          -0.9965    2.4415   -1.8626 H       1  UNL1        0.0584
     22 H          -2.0243    3.0566   -0.5782 H       1  UNL1        0.0584
     23 H          -0.2897   -5.1469    1.5936 H       1  UNL1        0.0322
     24 H           1.2096   -5.5358    0.7244 H       1  UNL1        0.0322
     25 H          -0.3769   -5.9606    0.0175 H       1  UNL1        0.0322
     26 H          -0.6328   -2.9920    1.5529 H       1  UNL1        0.1491
     27 H           1.6996   -1.8324   -0.9234 H       1  UNL1        0.2100
     28 H           1.8274    1.3688    1.0192 H       1  UNL1        0.2100
     29 H           0.8155    3.2079   -0.5177 H       1  UNL1        0.2095
@<TRIPOS>BOND
     1     6    13    1
     2     6     5    1
     3    11     4    1
     4     4     5    1
     5     4     3    1
     6     5    12    1
     7    12     1    1
     8     3    10    1
     9     3     2    1
    10     1     2    1
    11     9     7   am
    12     7    14    2
    13     7     8    1
    14     2     9    1
    15     1    15    1
    16     1    16    1
    17     2    17    1
    18     3    18    1
    19     4    19    1
    20     5    20    1
    21     6    21    1
    22     6    22    1
    23     8    23    1
    24     8    24    1
    25     8    25    1
    26     9    26    1
    27    10    27    1
    28    11    28    1
    29    13    29    1
